
     RDKit          3D

 24 27  0  0  0  0  0  0  0  0999 V2000
  -28.1100  -21.1250  -11.7830 C   0  0  0  0  0  0  0  0  0  0  0  0
  -29.1380  -20.1340   -9.8150 C   0  0  0  0  0  0  0  0  0  0  0  0
  -26.8640  -19.6120  -10.1060 C   0  0  0  0  0  0  0  0  0  0  0  0
  -26.3470  -18.1740   -8.1970 C   0  0  0  0  0  0  0  0  0  0  0  0
  -24.6510  -18.7420   -9.8540 C   0  0  0  0  0  0  0  0  0  0  0  0
  -30.4600  -21.5050  -11.2460 C   0  0  0  0  0  0  0  0  0  0  0  0
  -28.0100  -20.3360  -10.6490 C   0  0  0  0  0  0  0  0  0  0  0  0
  -29.3460  -21.7100  -12.0780 C   0  0  0  0  0  0  0  0  0  0  0  0
  -27.2470  -18.9400   -8.9190 C   0  0  0  0  0  0  0  0  0  0  0  0
  -25.0380  -18.0800   -8.6770 C   0  0  0  0  0  0  0  0  0  0  0  0
  -28.6770  -19.2570   -8.7170 C   0  0  0  0  0  0  0  0  0  0  0  0
  -25.5650  -19.5150  -10.5780 C   0  0  0  0  0  0  0  0  0  0  0  0
  -29.5470  -18.7540   -7.5500 C   0  0  0  0  0  0  0  0  0  0  0  0
  -30.3630  -20.7110  -10.1010 C   0  0  0  0  0  0  0  0  0  0  0  0
  -30.2682  -17.6131   -7.7884 C   0  0  0  0  0  0  0  0  0  0  0  0
  -31.0512  -17.2267   -6.5999 C   0  0  0  0  0  0  0  0  0  0  0  0
  -32.1941  -16.7694   -6.5333 C   0  0  0  0  0  0  0  0  0  0  0  0
  -30.5363  -17.6247   -5.2838 C   0  0  0  0  0  0  0  0  0  0  0  0
  -31.3125  -17.6989   -4.1538 C   0  0  0  0  0  0  0  0  0  0  0  0
  -33.0111  -16.6966   -5.4090 C   0  0  0  0  0  0  0  0  0  0  0  0
  -31.8840  -22.2493  -11.5264 C   0  0  0  0  0  0  0  0  0  0  0  0
  -31.7572  -23.4968  -11.9050 O   0  0  0  0  0  0  0  0  0  0  0  0
  -32.8908  -21.5867  -11.7645 O   0  0  0  0  0  0  0  0  0  0  0  0
  -32.6093  -17.2074   -4.2432 C   0  0  0  0  0  0  0  0  0  0  0  0
  2  7  1  0
  2 11  1  0
  2 14  2  0
  3  7  1  0
  3  9  1  0
  3 12  2  0
  9 11  1  0
 11 13  2  3
  1  7  2  0
  1  8  1  0
  4  9  2  0
  4 10  1  0
  6 14  1  0
  6  8  2  0
  5 12  1  0
  5 10  2  0
 13 15  1  0
 15 16  1  0
 16 17  2  0
 16 18  1  0
 18 19  2  0
 17 20  1  0
  6 21  1  0
 21 22  2  0
 21 23  1  0
 19 24  1  0
 20 24  2  0
M  END
$$$$

     RDKit          3D

 25 28  0  0  0  0  0  0  0  0999 V2000
  -28.1100  -21.1250  -11.7830 C   0  0  0  0  0  0  0  0  0  0  0  0
  -29.1380  -20.1340   -9.8150 C   0  0  0  0  0  0  0  0  0  0  0  0
  -26.8640  -19.6120  -10.1060 C   0  0  0  0  0  0  0  0  0  0  0  0
  -26.3470  -18.1740   -8.1970 C   0  0  0  0  0  0  0  0  0  0  0  0
  -24.6510  -18.7420   -9.8540 C   0  0  0  0  0  0  0  0  0  0  0  0
  -30.4600  -21.5050  -11.2460 C   0  0  0  0  0  0  0  0  0  0  0  0
  -28.0100  -20.3360  -10.6490 C   0  0  0  0  0  0  0  0  0  0  0  0
  -29.3460  -21.7100  -12.0780 C   0  0  0  0  0  0  0  0  0  0  0  0
  -27.2470  -18.9400   -8.9190 C   0  0  0  0  0  0  0  0  0  0  0  0
  -25.0380  -18.0800   -8.6770 C   0  0  0  0  0  0  0  0  0  0  0  0
  -28.6770  -19.2570   -8.7170 C   0  0  0  0  0  0  0  0  0  0  0  0
  -25.5650  -19.5150  -10.5780 C   0  0  0  0  0  0  0  0  0  0  0  0
  -29.5470  -18.7540   -7.5500 C   0  0  0  0  0  0  0  0  0  0  0  0
  -30.3630  -20.7110  -10.1010 C   0  0  0  0  0  0  0  0  0  0  0  0
  -31.6372  -22.1895  -11.6585 N   0  0  0  0  0  0  0  0  0  0  0  0
  -30.2571  -17.6003   -7.7868 C   0  0  0  0  0  0  0  0  0  0  0  0
  -31.0594  -17.2358   -6.6100 C   0  0  0  0  0  0  0  0  0  0  0  0
  -32.1858  -16.7350   -6.5482 C   0  0  0  0  0  0  0  0  0  0  0  0
  -30.4888  -17.5410   -5.2795 C   0  0  0  0  0  0  0  0  0  0  0  0
  -32.8414  -21.9476  -11.0629 O   0  0  0  0  0  0  0  0  0  0  0  0
  -31.1582  -17.4338   -4.2236 C   0  0  0  0  0  0  0  0  0  0  0  0
  -32.8397  -16.3009   -7.8728 C   0  0  0  0  0  0  0  0  0  0  0  0
  -33.0620  -16.5811   -5.4424 C   0  0  0  0  0  0  0  0  0  0  0  0
  -32.5042  -16.9996   -4.2178 C   0  0  0  0  0  0  0  0  0  0  0  0
  -31.6918  -23.3498  -12.4566 C   0  0  0  0  0  0  0  0  0  0  0  0
  2  7  1  0
  2 11  1  0
  2 14  2  0
  3  7  1  0
  3  9  1  0
  3 12  2  0
  9 11  1  0
 11 13  2  3
  1  7  2  0
  1  8  1  0
  4  9  2  0
  4 10  1  0
  6 14  1  0
  6  8  2  0
  5 12  1  0
  5 10  2  0
  6 15  1  0
 13 16  1  0
 16 17  1  0
 17 18  2  0
 17 19  1  0
 15 20  1  0
 19 21  2  0
 18 22  1  0
 18 23  1  0
 21 24  1  0
 23 24  2  0
 15 25  1  0
M  END
$$$$

     RDKit          3D

 25 28  0  0  0  0  0  0  0  0999 V2000
  -28.1100  -21.1250  -11.7830 C   0  0  0  0  0  0  0  0  0  0  0  0
  -29.1380  -20.1340   -9.8150 C   0  0  0  0  0  0  0  0  0  0  0  0
  -26.8640  -19.6120  -10.1060 C   0  0  0  0  0  0  0  0  0  0  0  0
  -26.3470  -18.1740   -8.1970 C   0  0  0  0  0  0  0  0  0  0  0  0
  -24.6510  -18.7420   -9.8540 C   0  0  0  0  0  0  0  0  0  0  0  0
  -30.4600  -21.5050  -11.2460 C   0  0  0  0  0  0  0  0  0  0  0  0
  -28.0100  -20.3360  -10.6490 C   0  0  0  0  0  0  0  0  0  0  0  0
  -29.3460  -21.7100  -12.0780 C   0  0  0  0  0  0  0  0  0  0  0  0
  -27.2470  -18.9400   -8.9190 C   0  0  0  0  0  0  0  0  0  0  0  0
  -25.0380  -18.0800   -8.6770 C   0  0  0  0  0  0  0  0  0  0  0  0
  -28.6770  -19.2570   -8.7170 C   0  0  0  0  0  0  0  0  0  0  0  0
  -25.5650  -19.5150  -10.5780 C   0  0  0  0  0  0  0  0  0  0  0  0
  -29.5470  -18.7540   -7.5500 C   0  0  0  0  0  0  0  0  0  0  0  0
  -30.3630  -20.7110  -10.1010 C   0  0  0  0  0  0  0  0  0  0  0  0
  -30.2682  -17.6131   -7.7884 C   0  0  0  0  0  0  0  0  0  0  0  0
  -31.0512  -17.2267   -6.5999 C   0  0  0  0  0  0  0  0  0  0  0  0
  -32.1941  -16.7694   -6.5333 C   0  0  0  0  0  0  0  0  0  0  0  0
  -31.8813  -22.2475  -11.5293 C   0  0  0  0  0  0  0  0  0  0  0  0
  -30.3477  -17.1101   -5.2995 C   0  0  0  0  0  0  0  0  0  0  0  0
  -30.9878  -16.9836   -4.1029 C   0  0  0  0  0  0  0  0  0  0  0  0
  -33.0416  -16.5233   -5.4145 C   0  0  0  0  0  0  0  0  0  0  0  0
  -30.4154  -17.1278   -2.8756 O   0  0  0  0  0  0  0  0  0  0  0  0
  -32.4333  -16.6887   -4.2010 C   0  0  0  0  0  0  0  0  0  0  0  0
  -31.7578  -23.4940  -11.9010 O   0  0  0  0  0  0  0  0  0  0  0  0
  -32.9700  -21.6739  -11.2519 O   0  0  0  0  0  0  0  0  0  0  0  0
  2  7  1  0
  2 11  1  0
  2 14  2  0
  3  7  1  0
  3  9  1  0
  3 12  2  0
  9 11  1  0
 11 13  2  3
  1  7  2  0
  1  8  1  0
  4  9  2  0
  4 10  1  0
  6 14  1  0
  6  8  2  0
  5 12  1  0
  5 10  2  0
 13 15  1  0
 15 16  1  0
 16 17  2  0
  6 18  1  0
 16 19  1  0
 19 20  2  0
 17 21  1  0
 20 22  1  0
 20 23  1  0
 21 23  2  0
 18 24  2  0
 18 25  1  0
M  END
$$$$

     RDKit          3D

 25 28  0  0  0  0  0  0  0  0999 V2000
  -28.1100  -21.1250  -11.7830 C   0  0  0  0  0  0  0  0  0  0  0  0
  -29.1380  -20.1340   -9.8150 C   0  0  0  0  0  0  0  0  0  0  0  0
  -26.8640  -19.6120  -10.1060 C   0  0  0  0  0  0  0  0  0  0  0  0
  -26.3470  -18.1740   -8.1970 C   0  0  0  0  0  0  0  0  0  0  0  0
  -24.6510  -18.7420   -9.8540 C   0  0  0  0  0  0  0  0  0  0  0  0
  -30.4600  -21.5050  -11.2460 C   0  0  0  0  0  0  0  0  0  0  0  0
  -28.0100  -20.3360  -10.6490 C   0  0  0  0  0  0  0  0  0  0  0  0
  -29.3460  -21.7100  -12.0780 C   0  0  0  0  0  0  0  0  0  0  0  0
  -27.2470  -18.9400   -8.9190 C   0  0  0  0  0  0  0  0  0  0  0  0
  -25.0380  -18.0800   -8.6770 C   0  0  0  0  0  0  0  0  0  0  0  0
  -28.6770  -19.2570   -8.7170 C   0  0  0  0  0  0  0  0  0  0  0  0
  -25.5650  -19.5150  -10.5780 C   0  0  0  0  0  0  0  0  0  0  0  0
  -29.5470  -18.7540   -7.5500 C   0  0  0  0  0  0  0  0  0  0  0  0
  -30.3630  -20.7110  -10.1010 C   0  0  0  0  0  0  0  0  0  0  0  0
  -30.2682  -17.6131   -7.7884 C   0  0  0  0  0  0  0  0  0  0  0  0
  -31.0512  -17.2267   -6.5999 C   0  0  0  0  0  0  0  0  0  0  0  0
  -32.1941  -16.7694   -6.5333 C   0  0  0  0  0  0  0  0  0  0  0  0
  -31.8813  -22.2475  -11.5293 C   0  0  0  0  0  0  0  0  0  0  0  0
  -30.3477  -17.1101   -5.2995 C   0  0  0  0  0  0  0  0  0  0  0  0
  -30.9878  -16.9836   -4.1029 C   0  0  0  0  0  0  0  0  0  0  0  0
  -33.0416  -16.5233   -5.4145 C   0  0  0  0  0  0  0  0  0  0  0  0
  -30.4154  -17.1278   -2.8756 O   0  0  0  0  0  0  0  0  0  0  0  0
  -32.7404  -21.5173  -12.0313 N   0  0  0  0  0  0  0  0  0  0  0  0
  -32.4002  -16.6906   -4.1662 C   0  0  0  0  0  0  0  0  0  0  0  0
  -31.9723  -23.5027  -11.4790 O   0  0  0  0  0  0  0  0  0  0  0  0
  2  7  1  0
  2 11  1  0
  2 14  2  0
  3  7  1  0
  3  9  1  0
  3 12  2  0
  9 11  1  0
 11 13  2  3
  1  7  2  0
  1  8  1  0
  4  9  2  0
  4 10  1  0
  6 14  1  0
  6  8  2  0
  5 12  1  0
  5 10  2  0
 13 15  1  0
 15 16  1  0
 16 17  2  0
  6 18  1  0
 16 19  1  0
 19 20  2  0
 17 21  1  0
 20 22  1  0
 18 23  1  0
 20 24  1  0
 21 24  2  0
 18 25  2  0
M  END
$$$$

     RDKit          3D

 26 29  0  0  0  0  0  0  0  0999 V2000
  -28.1100  -21.1250  -11.7830 C   0  0  0  0  0  0  0  0  0  0  0  0
  -29.1380  -20.1340   -9.8150 C   0  0  0  0  0  0  0  0  0  0  0  0
  -26.8640  -19.6120  -10.1060 C   0  0  0  0  0  0  0  0  0  0  0  0
  -26.3470  -18.1740   -8.1970 C   0  0  0  0  0  0  0  0  0  0  0  0
  -24.6510  -18.7420   -9.8540 C   0  0  0  0  0  0  0  0  0  0  0  0
  -30.4600  -21.5050  -11.2460 C   0  0  0  0  0  0  0  0  0  0  0  0
  -28.0100  -20.3360  -10.6490 C   0  0  0  0  0  0  0  0  0  0  0  0
  -29.3460  -21.7100  -12.0780 C   0  0  0  0  0  0  0  0  0  0  0  0
  -27.2470  -18.9400   -8.9190 C   0  0  0  0  0  0  0  0  0  0  0  0
  -25.0380  -18.0800   -8.6770 C   0  0  0  0  0  0  0  0  0  0  0  0
  -28.6770  -19.2570   -8.7170 C   0  0  0  0  0  0  0  0  0  0  0  0
  -25.5650  -19.5150  -10.5780 C   0  0  0  0  0  0  0  0  0  0  0  0
  -29.5470  -18.7540   -7.5500 C   0  0  0  0  0  0  0  0  0  0  0  0
  -30.3630  -20.7110  -10.1010 C   0  0  0  0  0  0  0  0  0  0  0  0
  -30.2682  -17.6131   -7.7884 C   0  0  0  0  0  0  0  0  0  0  0  0
  -31.0512  -17.2267   -6.5999 C   0  0  0  0  0  0  0  0  0  0  0  0
  -32.1941  -16.7694   -6.5333 C   0  0  0  0  0  0  0  0  0  0  0  0
  -30.4316  -17.4800   -5.2841 C   0  0  0  0  0  0  0  0  0  0  0  0
  -33.0443  -16.3688   -5.4402 C   0  0  0  0  0  0  0  0  0  0  0  0
  -31.8834  -22.2512  -11.5278 C   0  0  0  0  0  0  0  0  0  0  0  0
  -34.3339  -15.8924   -5.5463 C   0  0  0  0  0  0  0  0  0  0  0  0
  -31.7563  -23.4933  -11.9231 O   0  0  0  0  0  0  0  0  0  0  0  0
  -31.1536  -17.2740   -4.1264 C   0  0  0  0  0  0  0  0  0  0  0  0
  -34.6685  -14.7827   -5.0399 C   0  0  0  0  0  0  0  0  0  0  0  0
  -32.3689  -16.6948   -4.2120 C   0  0  0  0  0  0  0  0  0  0  0  0
  -32.8956  -21.5829  -11.8604 O   0  0  0  0  0  0  0  0  0  0  0  0
  2  7  1  0
  2 11  1  0
  2 14  2  0
  3  7  1  0
  3  9  1  0
  3 12  2  0
  9 11  1  0
 11 13  2  3
  1  7  2  0
  1  8  1  0
  4  9  2  0
  4 10  1  0
  6 14  1  0
  6  8  2  0
  5 12  1  0
  5 10  2  0
 13 15  1  0
 15 16  1  0
 16 17  2  0
 16 18  1  0
 17 19  1  0
  6 20  1  0
 19 21  1  0
 20 22  1  0
 18 23  2  0
 21 24  2  0
 19 25  2  0
 23 25  1  0
 20 26  2  0
M  END
$$$$

     RDKit          3D

 27 30  0  0  0  0  0  0  0  0999 V2000
  -28.1100  -21.1250  -11.7830 C   0  0  0  0  0  0  0  0  0  0  0  0
  -29.1380  -20.1340   -9.8150 C   0  0  0  0  0  0  0  0  0  0  0  0
  -26.8640  -19.6120  -10.1060 C   0  0  0  0  0  0  0  0  0  0  0  0
  -26.3470  -18.1740   -8.1970 C   0  0  0  0  0  0  0  0  0  0  0  0
  -24.6510  -18.7420   -9.8540 C   0  0  0  0  0  0  0  0  0  0  0  0
  -30.4600  -21.5050  -11.2460 C   0  0  0  0  0  0  0  0  0  0  0  0
  -28.0100  -20.3360  -10.6490 C   0  0  0  0  0  0  0  0  0  0  0  0
  -29.3460  -21.7100  -12.0780 C   0  0  0  0  0  0  0  0  0  0  0  0
  -27.2470  -18.9400   -8.9190 C   0  0  0  0  0  0  0  0  0  0  0  0
  -25.0380  -18.0800   -8.6770 C   0  0  0  0  0  0  0  0  0  0  0  0
  -28.6770  -19.2570   -8.7170 C   0  0  0  0  0  0  0  0  0  0  0  0
  -25.5650  -19.5150  -10.5780 C   0  0  0  0  0  0  0  0  0  0  0  0
  -29.5470  -18.7540   -7.5500 C   0  0  0  0  0  0  0  0  0  0  0  0
  -30.3630  -20.7110  -10.1010 C   0  0  0  0  0  0  0  0  0  0  0  0
  -30.2682  -17.6131   -7.7884 C   0  0  0  0  0  0  0  0  0  0  0  0
  -31.6351  -22.1828  -11.6616 N   0  0  0  0  0  0  0  0  0  0  0  0
  -31.0719  -17.2484   -6.6106 C   0  0  0  0  0  0  0  0  0  0  0  0
  -32.2047  -16.6972   -6.5886 C   0  0  0  0  0  0  0  0  0  0  0  0
  -30.4594  -17.2619   -5.2621 C   0  0  0  0  0  0  0  0  0  0  0  0
  -32.8413  -21.9527  -11.0550 O   0  0  0  0  0  0  0  0  0  0  0  0
  -31.7012  -23.3308  -12.4762 C   0  0  0  0  0  0  0  0  0  0  0  0
  -31.1650  -17.1372   -4.1113 C   0  0  0  0  0  0  0  0  0  0  0  0
  -30.6185  -17.3721   -2.8575 C   0  0  0  0  0  0  0  0  0  0  0  0
  -32.6166  -17.1777   -4.2952 C   0  0  0  0  0  0  0  0  0  0  0  0
  -33.1493  -16.8776   -5.5188 C   0  0  0  0  0  0  0  0  0  0  0  0
  -33.4235  -17.2884   -3.1741 C   0  0  0  0  0  0  0  0  0  0  0  0
  -34.5608  -16.7179   -2.9624 C   0  0  0  0  0  0  0  0  0  0  0  0
  2  7  1  0
  2 11  1  0
  2 14  2  0
  3  7  1  0
  3  9  1  0
  3 12  2  0
  9 11  1  0
 11 13  2  3
  1  7  2  0
  1  8  1  0
  4  9  2  0
  4 10  1  0
  6 14  1  0
  6  8  2  0
  5 12  1  0
  5 10  2  0
 13 15  1  0
  6 16  1  0
 15 17  1  0
 17 18  2  0
 17 19  1  0
 16 20  1  0
 16 21  1  0
 19 22  2  0
 22 23  1  0
 22 24  1  0
 18 25  1  0
 24 25  1  0
 24 26  2  3
 26 27  1  0
M  END
$$$$

     RDKit          3D

 27 30  0  0  0  0  0  0  0  0999 V2000
  -28.1100  -21.1250  -11.7830 C   0  0  0  0  0  0  0  0  0  0  0  0
  -29.1380  -20.1340   -9.8150 C   0  0  0  0  0  0  0  0  0  0  0  0
  -26.8640  -19.6120  -10.1060 C   0  0  0  0  0  0  0  0  0  0  0  0
  -26.3470  -18.1740   -8.1970 C   0  0  0  0  0  0  0  0  0  0  0  0
  -24.6510  -18.7420   -9.8540 C   0  0  0  0  0  0  0  0  0  0  0  0
  -30.4600  -21.5050  -11.2460 C   0  0  0  0  0  0  0  0  0  0  0  0
  -28.0100  -20.3360  -10.6490 C   0  0  0  0  0  0  0  0  0  0  0  0
  -29.3460  -21.7100  -12.0780 C   0  0  0  0  0  0  0  0  0  0  0  0
  -27.2470  -18.9400   -8.9190 C   0  0  0  0  0  0  0  0  0  0  0  0
  -25.0380  -18.0800   -8.6770 C   0  0  0  0  0  0  0  0  0  0  0  0
  -28.6770  -19.2570   -8.7170 C   0  0  0  0  0  0  0  0  0  0  0  0
  -25.5650  -19.5150  -10.5780 C   0  0  0  0  0  0  0  0  0  0  0  0
  -29.5470  -18.7540   -7.5500 C   0  0  0  0  0  0  0  0  0  0  0  0
  -30.3630  -20.7110  -10.1010 C   0  0  0  0  0  0  0  0  0  0  0  0
  -30.2682  -17.6131   -7.7884 C   0  0  0  0  0  0  0  0  0  0  0  0
  -31.8870  -22.2541  -11.5313 C   0  0  0  0  0  0  0  0  0  0  0  0
  -31.7695  -23.4880  -11.8755 O   0  0  0  0  0  0  0  0  0  0  0  0
  -31.0825  -17.2574   -6.6142 C   0  0  0  0  0  0  0  0  0  0  0  0
  -32.5617  -21.4861  -12.5589 C   0  0  0  0  0  0  0  0  0  0  0  0
  -32.2472  -21.6421  -13.8110 O   0  0  0  0  0  0  0  0  0  0  0  0
  -32.2184  -16.6620   -6.6415 C   0  0  0  0  0  0  0  0  0  0  0  0
  -30.5474  -17.2728   -5.2464 C   0  0  0  0  0  0  0  0  0  0  0  0
  -33.0394  -16.5462   -8.0069 C   0  0  0  0  0  0  0  0  0  0  0  0
  -31.0816  -17.1667   -4.2411 C   0  0  0  0  0  0  0  0  0  0  0  0
  -32.9572  -16.2435   -5.4839 C   0  0  0  0  0  0  0  0  0  0  0  0
  -33.6113  -20.7350  -12.3572 O   0  0  0  0  0  0  0  0  0  0  0  0
  -32.6100  -16.4663   -4.2852 C   0  0  0  0  0  0  0  0  0  0  0  0
  2  7  1  0
  2 11  1  0
  2 14  2  0
  3  7  1  0
  3  9  1  0
  3 12  2  0
  9 11  1  0
 11 13  2  3
  1  7  2  0
  1  8  1  0
  4  9  2  0
  4 10  1  0
  6 14  1  0
  6  8  2  0
  5 12  1  0
  5 10  2  0
 13 15  1  0
  6 16  1  0
 16 17  1  0
 15 18  1  0
 16 19  1  0
 19 20  2  0
 18 21  2  0
 18 22  1  0
 21 23  1  0
 22 24  2  0
 21 25  1  0
 19 26  1  0
 24 27  1  0
 25 27  2  0
M  END
$$$$

     RDKit          3D

 28 32  0  0  0  0  0  0  0  0999 V2000
  -28.1100  -21.1250  -11.7830 C   0  0  0  0  0  0  0  0  0  0  0  0
  -29.1380  -20.1340   -9.8150 C   0  0  0  0  0  0  0  0  0  0  0  0
  -26.8640  -19.6120  -10.1060 C   0  0  0  0  0  0  0  0  0  0  0  0
  -26.3470  -18.1740   -8.1970 C   0  0  0  0  0  0  0  0  0  0  0  0
  -24.6510  -18.7420   -9.8540 C   0  0  0  0  0  0  0  0  0  0  0  0
  -30.4600  -21.5050  -11.2460 C   0  0  0  0  0  0  0  0  0  0  0  0
  -28.0100  -20.3360  -10.6490 C   0  0  0  0  0  0  0  0  0  0  0  0
  -29.3460  -21.7100  -12.0780 C   0  0  0  0  0  0  0  0  0  0  0  0
  -27.2470  -18.9400   -8.9190 C   0  0  0  0  0  0  0  0  0  0  0  0
  -25.0380  -18.0800   -8.6770 C   0  0  0  0  0  0  0  0  0  0  0  0
  -28.6770  -19.2570   -8.7170 C   0  0  0  0  0  0  0  0  0  0  0  0
  -25.5650  -19.5150  -10.5780 C   0  0  0  0  0  0  0  0  0  0  0  0
  -29.5470  -18.7540   -7.5500 C   0  0  0  0  0  0  0  0  0  0  0  0
  -30.3630  -20.7110  -10.1010 C   0  0  0  0  0  0  0  0  0  0  0  0
  -30.2682  -17.6131   -7.7884 C   0  0  0  0  0  0  0  0  0  0  0  0
  -31.6351  -22.1828  -11.6616 N   0  0  0  0  0  0  0  0  0  0  0  0
  -31.6590  -23.1165  -12.5874 C   0  0  0  0  0  0  0  0  0  0  0  0
  -32.8551  -22.7761  -13.4212 C   0  0  0  0  0  0  0  0  0  0  0  0
  -31.0622  -17.2462   -6.6023 C   0  0  0  0  0  0  0  0  0  0  0  0
  -32.2058  -16.6909   -6.5930 C   0  0  0  0  0  0  0  0  0  0  0  0
  -30.4525  -17.2514   -5.2589 C   0  0  0  0  0  0  0  0  0  0  0  0
  -32.9139  -16.3100   -5.4219 C   0  0  0  0  0  0  0  0  0  0  0  0
  -32.7104  -21.7338  -14.2535 O   0  0  0  0  0  0  0  0  0  0  0  0
  -32.9005  -21.9031  -11.3693 C   0  0  0  0  0  0  0  0  0  0  0  0
  -32.3737  -16.4950   -4.2012 C   0  0  0  0  0  0  0  0  0  0  0  0
  -31.1655  -17.0789   -3.9743 C   0  0  0  0  0  0  0  0  0  0  0  0
  -33.8545  -22.2992  -12.3928 C   0  0  0  0  0  0  0  0  0  0  0  0
  -34.5885  -21.2428  -12.8076 O   0  0  0  0  0  0  0  0  0  0  0  0
  2  7  1  0
  2 11  1  0
  2 14  2  0
  3  7  1  0
  3  9  1  0
  3 12  2  0
  9 11  1  0
 11 13  2  3
  1  7  2  0
  1  8  1  0
  4  9  2  0
  4 10  1  0
  6 14  1  0
  6  8  2  0
  5 12  1  0
  5 10  2  0
 13 15  1  0
  6 16  1  0
 16 17  1  0
 17 18  1  0
 15 19  1  0
 19 20  2  0
 19 21  1  0
 20 22  1  0
 18 23  1  0
 16 24  1  0
 22 25  2  0
 21 26  2  0
 25 26  1  0
 18 27  1  0
 24 27  1  0
 27 28  1  0
M  END
$$$$

     RDKit          3D

 28 31  0  0  0  0  0  0  0  0999 V2000
  -28.1100  -21.1250  -11.7830 C   0  0  0  0  0  0  0  0  0  0  0  0
  -29.1380  -20.1340   -9.8150 C   0  0  0  0  0  0  0  0  0  0  0  0
  -26.8640  -19.6120  -10.1060 C   0  0  0  0  0  0  0  0  0  0  0  0
  -26.3470  -18.1740   -8.1970 C   0  0  0  0  0  0  0  0  0  0  0  0
  -24.6510  -18.7420   -9.8540 C   0  0  0  0  0  0  0  0  0  0  0  0
  -30.4600  -21.5050  -11.2460 C   0  0  0  0  0  0  0  0  0  0  0  0
  -28.0100  -20.3360  -10.6490 C   0  0  0  0  0  0  0  0  0  0  0  0
  -29.3460  -21.7100  -12.0780 C   0  0  0  0  0  0  0  0  0  0  0  0
  -27.2470  -18.9400   -8.9190 C   0  0  0  0  0  0  0  0  0  0  0  0
  -25.0380  -18.0800   -8.6770 C   0  0  0  0  0  0  0  0  0  0  0  0
  -28.6770  -19.2570   -8.7170 C   0  0  0  0  0  0  0  0  0  0  0  0
  -25.5650  -19.5150  -10.5780 C   0  0  0  0  0  0  0  0  0  0  0  0
  -29.5470  -18.7540   -7.5500 C   0  0  0  0  0  0  0  0  0  0  0  0
  -30.3630  -20.7110  -10.1010 C   0  0  0  0  0  0  0  0  0  0  0  0
  -30.2682  -17.6131   -7.7884 C   0  0  0  0  0  0  0  0  0  0  0  0
  -31.0512  -17.2267   -6.5999 C   0  0  0  0  0  0  0  0  0  0  0  0
  -30.7450  -17.6313   -5.4512 C   0  0  0  0  0  0  0  0  0  0  0  0
  -32.1430  -16.3181   -6.6838 C   0  0  0  0  0  0  0  0  0  0  0  0
  -31.6380  -22.1797  -11.6502 N   0  0  0  0  0  0  0  0  0  0  0  0
  -32.8393  -21.9468  -11.0480 O   0  0  0  0  0  0  0  0  0  0  0  0
  -32.8152  -15.9988   -5.6015 C   0  0  0  0  0  0  0  0  0  0  0  0
  -31.7530  -23.0869  -12.6657 C   0  0  0  0  0  0  0  0  0  0  0  0
  -31.5248  -17.4294   -4.2802 C   0  0  0  0  0  0  0  0  0  0  0  0
  -32.5999  -16.5326   -4.3831 C   0  0  0  0  0  0  0  0  0  0  0  0
  -32.3071  -22.3972  -13.7712 O   0  0  0  0  0  0  0  0  0  0  0  0
  -31.2335  -18.1111   -2.8730 C   0  0  0  0  0  0  0  0  0  0  0  0
  -30.4902  -17.3536   -2.1127 C   0  0  0  0  0  0  0  0  0  0  0  0
  -31.6490  -19.1747   -2.9315 O   0  0  0  0  0  0  0  0  0  0  0  0
  2  7  1  0
  2 11  1  0
  2 14  2  0
  3  7  1  0
  3  9  1  0
  3 12  2  0
  9 11  1  0
 11 13  2  3
  1  7  2  0
  1  8  1  0
  4  9  2  0
  4 10  1  0
  6 14  1  0
  6  8  2  0
  5 12  1  0
  5 10  2  0
 13 15  1  0
 15 16  1  0
 16 17  1  0
 16 18  2  0
  6 19  1  0
 19 20  1  0
 18 21  1  0
 19 22  1  0
 17 23  2  0
 21 24  2  0
 23 24  1  0
 22 25  1  0
 23 26  1  0
 26 27  1  0
 26 28  2  0
M  END
$$$$

     RDKit          3D

 28 31  0  0  0  0  0  0  0  0999 V2000
  -28.1100  -21.1250  -11.7830 C   0  0  0  0  0  0  0  0  0  0  0  0
  -29.1380  -20.1340   -9.8150 C   0  0  0  0  0  0  0  0  0  0  0  0
  -26.8640  -19.6120  -10.1060 C   0  0  0  0  0  0  0  0  0  0  0  0
  -26.3470  -18.1740   -8.1970 C   0  0  0  0  0  0  0  0  0  0  0  0
  -24.6510  -18.7420   -9.8540 C   0  0  0  0  0  0  0  0  0  0  0  0
  -30.4600  -21.5050  -11.2460 C   0  0  0  0  0  0  0  0  0  0  0  0
  -28.0100  -20.3360  -10.6490 C   0  0  0  0  0  0  0  0  0  0  0  0
  -29.3460  -21.7100  -12.0780 C   0  0  0  0  0  0  0  0  0  0  0  0
  -27.2470  -18.9400   -8.9190 C   0  0  0  0  0  0  0  0  0  0  0  0
  -25.0380  -18.0800   -8.6770 C   0  0  0  0  0  0  0  0  0  0  0  0
  -28.6770  -19.2570   -8.7170 C   0  0  0  0  0  0  0  0  0  0  0  0
  -25.5650  -19.5150  -10.5780 C   0  0  0  0  0  0  0  0  0  0  0  0
  -29.5470  -18.7540   -7.5500 C   0  0  0  0  0  0  0  0  0  0  0  0
  -30.3630  -20.7110  -10.1010 C   0  0  0  0  0  0  0  0  0  0  0  0
  -30.2682  -17.6131   -7.7884 C   0  0  0  0  0  0  0  0  0  0  0  0
  -31.0512  -17.2267   -6.5999 C   0  0  0  0  0  0  0  0  0  0  0  0
  -30.7450  -17.6313   -5.4512 C   0  0  0  0  0  0  0  0  0  0  0  0
  -31.8820  -22.2510  -11.5274 C   0  0  0  0  0  0  0  0  0  0  0  0
  -31.4242  -15.7458   -6.5094 C   0  0  0  0  0  0  0  0  0  0  0  0
  -31.8288  -17.6863   -4.3624 C   0  0  0  0  0  0  0  0  0  0  0  0
  -32.3278  -18.9128   -3.8888 C   0  0  0  0  0  0  0  0  0  0  0  0
  -32.7244  -15.4268   -5.8765 C   0  0  0  0  0  0  0  0  0  0  0  0
  -32.8124  -19.8550   -4.6998 O   0  0  0  0  0  0  0  0  0  0  0  0
  -31.7609  -23.4898  -11.8768 O   0  0  0  0  0  0  0  0  0  0  0  0
  -32.8638  -16.7154   -4.6874 C   0  0  0  0  0  0  0  0  0  0  0  0
  -32.9688  -21.6617  -11.2861 O   0  0  0  0  0  0  0  0  0  0  0  0
  -32.1353  -19.3716   -2.7030 O   0  0  0  0  0  0  0  0  0  0  0  0
  -32.9302  -20.5399   -2.3268 C   0  0  0  0  0  0  0  0  0  0  0  0
  2  7  1  0
  2 11  1  0
  2 14  2  0
  3  7  1  0
  3  9  1  0
  3 12  2  0
  9 11  1  0
 11 13  2  3
  1  7  2  0
  1  8  1  0
  4  9  2  0
  4 10  1  0
  6 14  1  0
  6  8  2  0
  5 12  1  0
  5 10  2  0
 13 15  1  0
 15 16  1  0
 16 17  1  0
  6 18  1  0
 16 19  1  0
 17 20  1  0
 20 21  1  0
 19 22  1  0
 21 23  2  0
 18 24  2  0
 20 25  1  0
 22 25  1  0
 18 26  1  0
 21 27  1  0
 27 28  1  0
M  END
$$$$

     RDKit          3D

 28 32  0  0  0  0  0  0  0  0999 V2000
  -28.1100  -21.1250  -11.7830 C   0  0  0  0  0  0  0  0  0  0  0  0
  -29.1380  -20.1340   -9.8150 C   0  0  0  0  0  0  0  0  0  0  0  0
  -26.8640  -19.6120  -10.1060 C   0  0  0  0  0  0  0  0  0  0  0  0
  -26.3470  -18.1740   -8.1970 C   0  0  0  0  0  0  0  0  0  0  0  0
  -24.6510  -18.7420   -9.8540 C   0  0  0  0  0  0  0  0  0  0  0  0
  -30.4600  -21.5050  -11.2460 C   0  0  0  0  0  0  0  0  0  0  0  0
  -28.0100  -20.3360  -10.6490 C   0  0  0  0  0  0  0  0  0  0  0  0
  -29.3460  -21.7100  -12.0780 C   0  0  0  0  0  0  0  0  0  0  0  0
  -27.2470  -18.9400   -8.9190 C   0  0  0  0  0  0  0  0  0  0  0  0
  -25.0380  -18.0800   -8.6770 C   0  0  0  0  0  0  0  0  0  0  0  0
  -28.6770  -19.2570   -8.7170 C   0  0  0  0  0  0  0  0  0  0  0  0
  -25.5650  -19.5150  -10.5780 C   0  0  0  0  0  0  0  0  0  0  0  0
  -29.5470  -18.7540   -7.5500 C   0  0  0  0  0  0  0  0  0  0  0  0
  -30.3630  -20.7110  -10.1010 C   0  0  0  0  0  0  0  0  0  0  0  0
  -30.2682  -17.6131   -7.7884 C   0  0  0  0  0  0  0  0  0  0  0  0
  -31.0512  -17.2267   -6.5999 C   0  0  0  0  0  0  0  0  0  0  0  0
  -31.6350  -22.1780  -11.6524 N   0  0  0  0  0  0  0  0  0  0  0  0
  -31.6630  -23.1225  -12.5763 C   0  0  0  0  0  0  0  0  0  0  0  0
  -32.1953  -22.5475  -13.8008 C   0  0  0  0  0  0  0  0  0  0  0  0
  -30.7939  -17.5771   -5.4752 C   0  0  0  0  0  0  0  0  0  0  0  0
  -31.6742  -17.2865   -4.2914 C   0  0  0  0  0  0  0  0  0  0  0  0
  -32.4301  -18.3532   -3.7032 C   0  0  0  0  0  0  0  0  0  0  0  0
  -32.8246  -21.3680  -11.9887 C   0  0  0  0  0  0  0  0  0  0  0  0
  -32.3982  -18.6149   -2.4474 C   0  0  0  0  0  0  0  0  0  0  0  0
  -33.3208  -21.7584  -13.2062 C   0  0  0  0  0  0  0  0  0  0  0  0
  -32.6706  -19.6346   -4.3401 C   0  0  0  0  0  0  0  0  0  0  0  0
  -32.6674  -19.9877   -1.9514 C   0  0  0  0  0  0  0  0  0  0  0  0
  -32.9317  -20.6419   -3.3758 O   0  0  0  0  0  0  0  0  0  0  0  0
  2  7  1  0
  2 11  1  0
  2 14  2  0
  3  7  1  0
  3  9  1  0
  3 12  2  0
  9 11  1  0
 11 13  2  3
  1  7  2  0
  1  8  1  0
  4  9  2  0
  4 10  1  0
  6 14  1  0
  6  8  2  0
  5 12  1  0
  5 10  2  0
 13 15  1  0
 15 16  1  0
  6 17  1  0
 17 18  1  0
 18 19  1  0
 16 20  2  3
 20 21  1  0
 21 22  1  0
 17 23  1  0
 22 24  1  0
 19 25  1  0
 23 25  1  0
 22 26  1  0
 24 27  1  0
 26 28  1  0
 27 28  1  0
M  END
$$$$

     RDKit          3D

 28 31  0  0  0  0  0  0  0  0999 V2000
  -28.1100  -21.1250  -11.7830 C   0  0  0  0  0  0  0  0  0  0  0  0
  -29.1380  -20.1340   -9.8150 C   0  0  0  0  0  0  0  0  0  0  0  0
  -26.8640  -19.6120  -10.1060 C   0  0  0  0  0  0  0  0  0  0  0  0
  -26.3470  -18.1740   -8.1970 C   0  0  0  0  0  0  0  0  0  0  0  0
  -24.6510  -18.7420   -9.8540 C   0  0  0  0  0  0  0  0  0  0  0  0
  -30.4600  -21.5050  -11.2460 C   0  0  0  0  0  0  0  0  0  0  0  0
  -28.0100  -20.3360  -10.6490 C   0  0  0  0  0  0  0  0  0  0  0  0
  -29.3460  -21.7100  -12.0780 C   0  0  0  0  0  0  0  0  0  0  0  0
  -27.2470  -18.9400   -8.9190 C   0  0  0  0  0  0  0  0  0  0  0  0
  -25.0380  -18.0800   -8.6770 C   0  0  0  0  0  0  0  0  0  0  0  0
  -28.6770  -19.2570   -8.7170 C   0  0  0  0  0  0  0  0  0  0  0  0
  -25.5650  -19.5150  -10.5780 C   0  0  0  0  0  0  0  0  0  0  0  0
  -29.5470  -18.7540   -7.5500 C   0  0  0  0  0  0  0  0  0  0  0  0
  -30.3630  -20.7110  -10.1010 C   0  0  0  0  0  0  0  0  0  0  0  0
  -31.8812  -22.2717  -11.5420 C   0  0  0  0  0  0  0  0  0  0  0  0
  -30.2470  -17.5906   -7.7865 C   0  0  0  0  0  0  0  0  0  0  0  0
  -31.0535  -17.2270   -6.6127 C   0  0  0  0  0  0  0  0  0  0  0  0
  -30.8576  -17.5830   -5.4955 C   0  0  0  0  0  0  0  0  0  0  0  0
  -31.6799  -15.9960   -6.6331 C   0  0  0  0  0  0  0  0  0  0  0  0
  -32.3810  -15.6299   -5.5260 C   0  0  0  0  0  0  0  0  0  0  0  0
  -32.4058  -16.1069   -4.5895 C   0  0  0  0  0  0  0  0  0  0  0  0
  -31.6373  -17.3416   -4.3521 C   0  0  0  0  0  0  0  0  0  0  0  0
  -31.5865  -18.1153   -2.9853 C   0  0  0  0  0  0  0  0  0  0  0  0
  -32.3874  -19.2744   -2.9826 C   0  0  0  0  0  0  0  0  0  0  0  0
  -32.7386  -21.5406  -12.0425 O   0  0  0  0  0  0  0  0  0  0  0  0
  -31.8668  -23.4979  -11.9950 O   0  0  0  0  0  0  0  0  0  0  0  0
  -32.6249  -19.9896   -1.8743 C   0  0  0  0  0  0  0  0  0  0  0  0
  -32.2260  -20.0529   -4.2745 O   0  0  0  0  0  0  0  0  0  0  0  0
  2  7  1  0
  2 11  1  0
  2 14  2  0
  3  7  1  0
  3  9  1  0
  3 12  2  0
  9 11  1  0
 11 13  2  3
  1  7  2  0
  1  8  1  0
  4  9  2  0
  4 10  1  0
  6 14  1  0
  6  8  2  0
  5 12  1  0
  5 10  2  0
  6 15  1  0
 13 16  1  0
 16 17  1  0
 17 18  1  0
 17 19  2  0
 19 20  1  0
 20 21  2  0
 18 22  2  0
 21 22  1  0
 22 23  1  0
 23 24  1  0
 15 25  1  0
 15 26  2  0
 24 27  1  0
 24 28  1  0
M  END
$$$$

     RDKit          3D

 28 32  0  0  0  0  0  0  0  0999 V2000
  -28.1100  -21.1250  -11.7830 C   0  0  0  0  0  0  0  0  0  0  0  0
  -29.1380  -20.1340   -9.8150 C   0  0  0  0  0  0  0  0  0  0  0  0
  -26.8640  -19.6120  -10.1060 C   0  0  0  0  0  0  0  0  0  0  0  0
  -26.3470  -18.1740   -8.1970 C   0  0  0  0  0  0  0  0  0  0  0  0
  -24.6510  -18.7420   -9.8540 C   0  0  0  0  0  0  0  0  0  0  0  0
  -30.4600  -21.5050  -11.2460 C   0  0  0  0  0  0  0  0  0  0  0  0
  -28.0100  -20.3360  -10.6490 C   0  0  0  0  0  0  0  0  0  0  0  0
  -29.3460  -21.7100  -12.0780 C   0  0  0  0  0  0  0  0  0  0  0  0
  -27.2470  -18.9400   -8.9190 C   0  0  0  0  0  0  0  0  0  0  0  0
  -25.0380  -18.0800   -8.6770 C   0  0  0  0  0  0  0  0  0  0  0  0
  -28.6770  -19.2570   -8.7170 C   0  0  0  0  0  0  0  0  0  0  0  0
  -25.5650  -19.5150  -10.5780 C   0  0  0  0  0  0  0  0  0  0  0  0
  -29.5470  -18.7540   -7.5500 C   0  0  0  0  0  0  0  0  0  0  0  0
  -30.3630  -20.7110  -10.1010 C   0  0  0  0  0  0  0  0  0  0  0  0
  -31.8812  -22.2717  -11.5420 C   0  0  0  0  0  0  0  0  0  0  0  0
  -30.2470  -17.5906   -7.7865 C   0  0  0  0  0  0  0  0  0  0  0  0
  -31.0535  -17.2270   -6.6127 C   0  0  0  0  0  0  0  0  0  0  0  0
  -32.7324  -21.5336  -12.0563 N   0  0  0  0  0  0  0  0  0  0  0  0
  -30.7453  -17.7981   -5.4303 C   0  0  0  0  0  0  0  0  0  0  0  0
  -32.1146  -16.3154   -6.6407 C   0  0  0  0  0  0  0  0  0  0  0  0
  -32.5569  -20.9435  -13.2784 C   0  0  0  0  0  0  0  0  0  0  0  0
  -31.4490  -17.7329   -4.3577 C   0  0  0  0  0  0  0  0  0  0  0  0
  -33.3584  -20.2429  -11.3263 C   0  0  0  0  0  0  0  0  0  0  0  0
  -33.3501  -19.9356  -13.8868 C   0  0  0  0  0  0  0  0  0  0  0  0
  -32.6595  -16.9171   -4.3517 C   0  0  0  0  0  0  0  0  0  0  0  0
  -33.8517  -19.0285  -12.8363 C   0  0  0  0  0  0  0  0  0  0  0  0
  -32.9541  -16.2299   -5.5027 C   0  0  0  0  0  0  0  0  0  0  0  0
  -34.3470  -19.5572  -11.7059 C   0  0  0  0  0  0  0  0  0  0  0  0
  2  7  1  0
  2 11  1  0
  2 14  2  0
  3  7  1  0
  3  9  1  0
  3 12  2  0
  9 11  1  0
 11 13  2  3
  1  7  2  0
  1  8  1  0
  4  9  2  0
  4 10  1  0
  6 14  1  0
  6  8  2  0
  5 12  1  0
  5 10  2  0
  6 15  1  0
 13 16  1  0
 16 17  1  0
 15 18  1  0
 17 19  1  0
 17 20  2  0
 18 21  1  0
 19 22  2  0
 18 23  1  0
 21 24  1  0
 22 25  1  0
 24 26  1  0
 20 27  1  0
 25 27  2  0
 23 28  1  0
 26 28  1  0
M  END
$$$$

     RDKit          3D

 29 32  0  0  0  0  0  0  0  0999 V2000
  -28.1100  -21.1250  -11.7830 C   0  0  0  0  0  0  0  0  0  0  0  0
  -29.1380  -20.1340   -9.8150 C   0  0  0  0  0  0  0  0  0  0  0  0
  -26.8640  -19.6120  -10.1060 C   0  0  0  0  0  0  0  0  0  0  0  0
  -26.3470  -18.1740   -8.1970 C   0  0  0  0  0  0  0  0  0  0  0  0
  -24.6510  -18.7420   -9.8540 C   0  0  0  0  0  0  0  0  0  0  0  0
  -30.4600  -21.5050  -11.2460 C   0  0  0  0  0  0  0  0  0  0  0  0
  -28.0100  -20.3360  -10.6490 C   0  0  0  0  0  0  0  0  0  0  0  0
  -29.3460  -21.7100  -12.0780 C   0  0  0  0  0  0  0  0  0  0  0  0
  -27.2470  -18.9400   -8.9190 C   0  0  0  0  0  0  0  0  0  0  0  0
  -25.0380  -18.0800   -8.6770 C   0  0  0  0  0  0  0  0  0  0  0  0
  -28.6770  -19.2570   -8.7170 C   0  0  0  0  0  0  0  0  0  0  0  0
  -25.5650  -19.5150  -10.5780 C   0  0  0  0  0  0  0  0  0  0  0  0
  -29.5470  -18.7540   -7.5500 C   0  0  0  0  0  0  0  0  0  0  0  0
  -30.3630  -20.7110  -10.1010 C   0  0  0  0  0  0  0  0  0  0  0  0
  -30.2682  -17.6131   -7.7884 C   0  0  0  0  0  0  0  0  0  0  0  0
  -31.8870  -22.2541  -11.5313 C   0  0  0  0  0  0  0  0  0  0  0  0
  -32.7254  -21.5357  -12.0641 N   0  0  0  0  0  0  0  0  0  0  0  0
  -31.0736  -17.2543   -6.6113 C   0  0  0  0  0  0  0  0  0  0  0  0
  -32.2159  -16.5872   -6.7105 C   0  0  0  0  0  0  0  0  0  0  0  0
  -33.1818  -16.4839   -5.6345 C   0  0  0  0  0  0  0  0  0  0  0  0
  -34.1735  -15.6607   -5.7846 O   0  0  0  0  0  0  0  0  0  0  0  0
  -33.0426  -17.2658   -4.5272 C   0  0  0  0  0  0  0  0  0  0  0  0
  -34.3694  -14.9819   -6.9358 C   0  0  0  0  0  0  0  0  0  0  0  0
  -32.1500  -18.2027   -4.3492 C   0  0  0  0  0  0  0  0  0  0  0  0
  -32.0262  -19.1495   -3.3252 C   0  0  0  0  0  0  0  0  0  0  0  0
  -31.8041  -18.8311   -2.1548 O   0  0  0  0  0  0  0  0  0  0  0  0
  -31.9824  -23.5027  -11.4426 N   0  0  0  0  0  0  0  0  0  0  0  0
  -32.4011  -20.4720   -3.5640 N   0  0  0  0  0  0  0  0  0  0  0  0
  -31.1774  -18.4127   -5.5599 C   0  0  0  0  0  0  0  0  0  0  0  0
  2  7  1  0
  2 11  1  0
  2 14  2  0
  3  7  1  0
  3  9  1  0
  3 12  2  0
  9 11  1  0
 11 13  2  3
  1  7  2  0
  1  8  1  0
  4  9  2  0
  4 10  1  0
  6 14  1  0
  6  8  2  0
  5 12  1  0
  5 10  2  0
 13 15  1  0
  6 16  1  0
 16 17  1  0
 15 18  1  0
 18 19  2  0
 19 20  1  0
 20 21  1  0
 20 22  2  0
 21 23  1  0
 22 24  1  0
 24 25  1  0
 25 26  2  0
 16 27  2  0
 25 28  1  0
 18 29  1  0
 24 29  2  0
M  END
$$$$

     RDKit          3D

 29 33  0  0  0  0  0  0  0  0999 V2000
  -28.1100  -21.1250  -11.7830 C   0  0  0  0  0  0  0  0  0  0  0  0
  -29.1380  -20.1340   -9.8150 C   0  0  0  0  0  0  0  0  0  0  0  0
  -26.8640  -19.6120  -10.1060 C   0  0  0  0  0  0  0  0  0  0  0  0
  -26.3470  -18.1740   -8.1970 C   0  0  0  0  0  0  0  0  0  0  0  0
  -24.6510  -18.7420   -9.8540 C   0  0  0  0  0  0  0  0  0  0  0  0
  -30.4600  -21.5050  -11.2460 C   0  0  0  0  0  0  0  0  0  0  0  0
  -28.0100  -20.3360  -10.6490 C   0  0  0  0  0  0  0  0  0  0  0  0
  -29.3460  -21.7100  -12.0780 C   0  0  0  0  0  0  0  0  0  0  0  0
  -27.2470  -18.9400   -8.9190 C   0  0  0  0  0  0  0  0  0  0  0  0
  -25.0380  -18.0800   -8.6770 C   0  0  0  0  0  0  0  0  0  0  0  0
  -28.6770  -19.2570   -8.7170 C   0  0  0  0  0  0  0  0  0  0  0  0
  -25.5650  -19.5150  -10.5780 C   0  0  0  0  0  0  0  0  0  0  0  0
  -29.5470  -18.7540   -7.5500 C   0  0  0  0  0  0  0  0  0  0  0  0
  -30.3630  -20.7110  -10.1010 C   0  0  0  0  0  0  0  0  0  0  0  0
  -30.2682  -17.6131   -7.7884 C   0  0  0  0  0  0  0  0  0  0  0  0
  -31.0512  -17.2267   -6.5999 C   0  0  0  0  0  0  0  0  0  0  0  0
  -32.1941  -16.7694   -6.5333 C   0  0  0  0  0  0  0  0  0  0  0  0
  -30.4316  -17.4800   -5.2841 C   0  0  0  0  0  0  0  0  0  0  0  0
  -32.8891  -16.4246   -5.3638 C   0  0  0  0  0  0  0  0  0  0  0  0
  -34.2506  -15.9289   -5.4152 C   0  0  0  0  0  0  0  0  0  0  0  0
  -34.4688  -14.7085   -5.1581 O   0  0  0  0  0  0  0  0  0  0  0  0
  -31.6374  -22.1807  -11.6455 N   0  0  0  0  0  0  0  0  0  0  0  0
  -32.3887  -16.8073   -4.2622 C   0  0  0  0  0  0  0  0  0  0  0  0
  -35.3927  -16.5796   -5.5713 O   0  0  0  0  0  0  0  0  0  0  0  0
  -31.6697  -23.1280  -12.5665 C   0  0  0  0  0  0  0  0  0  0  0  0
  -32.8821  -21.4977  -11.3746 C   0  0  0  0  0  0  0  0  0  0  0  0
  -31.1608  -17.4047   -4.0807 C   0  0  0  0  0  0  0  0  0  0  0  0
  -32.7194  -22.8741  -13.5499 C   0  0  0  0  0  0  0  0  0  0  0  0
  -33.7521  -21.8517  -12.6043 C   0  0  0  0  0  0  0  0  0  0  0  0
  2  7  1  0
  2 11  1  0
  2 14  2  0
  3  7  1  0
  3  9  1  0
  3 12  2  0
  9 11  1  0
 11 13  2  3
  1  7  2  0
  1  8  1  0
  4  9  2  0
  4 10  1  0
  6 14  1  0
  6  8  2  0
  5 12  1  0
  5 10  2  0
 13 15  1  0
 15 16  1  0
 16 17  2  0
 16 18  1  0
 17 19  1  0
 19 20  1  0
 20 21  2  0
  6 22  1  0
 19 23  2  0
 20 24  1  0
 22 25  1  0
 22 26  1  0
 18 27  2  0
 23 27  1  0
 25 28  1  0
 26 29  1  0
 28 29  1  0
M  END
$$$$

     RDKit          3D

 29 33  0  0  0  0  0  0  0  0999 V2000
  -28.1100  -21.1250  -11.7830 C   0  0  0  0  0  0  0  0  0  0  0  0
  -29.1380  -20.1340   -9.8150 C   0  0  0  0  0  0  0  0  0  0  0  0
  -26.8640  -19.6120  -10.1060 C   0  0  0  0  0  0  0  0  0  0  0  0
  -26.3470  -18.1740   -8.1970 C   0  0  0  0  0  0  0  0  0  0  0  0
  -24.6510  -18.7420   -9.8540 C   0  0  0  0  0  0  0  0  0  0  0  0
  -30.4600  -21.5050  -11.2460 C   0  0  0  0  0  0  0  0  0  0  0  0
  -28.0100  -20.3360  -10.6490 C   0  0  0  0  0  0  0  0  0  0  0  0
  -29.3460  -21.7100  -12.0780 C   0  0  0  0  0  0  0  0  0  0  0  0
  -27.2470  -18.9400   -8.9190 C   0  0  0  0  0  0  0  0  0  0  0  0
  -25.0380  -18.0800   -8.6770 C   0  0  0  0  0  0  0  0  0  0  0  0
  -28.6770  -19.2570   -8.7170 C   0  0  0  0  0  0  0  0  0  0  0  0
  -25.5650  -19.5150  -10.5780 C   0  0  0  0  0  0  0  0  0  0  0  0
  -29.5470  -18.7540   -7.5500 C   0  0  0  0  0  0  0  0  0  0  0  0
  -30.3630  -20.7110  -10.1010 C   0  0  0  0  0  0  0  0  0  0  0  0
  -31.6372  -22.1895  -11.6585 N   0  0  0  0  0  0  0  0  0  0  0  0
  -30.2571  -17.6003   -7.7868 C   0  0  0  0  0  0  0  0  0  0  0  0
  -31.0594  -17.2358   -6.6100 C   0  0  0  0  0  0  0  0  0  0  0  0
  -32.1858  -16.7350   -6.5482 C   0  0  0  0  0  0  0  0  0  0  0  0
  -30.4666  -16.8425   -8.5780 C   0  0  0  0  0  0  0  0  0  0  0  0
  -33.0899  -16.6205   -5.3853 C   0  0  0  0  0  0  0  0  0  0  0  0
  -32.6558  -16.1516   -7.8199 C   0  0  0  0  0  0  0  0  0  0  0  0
  -33.7738  -15.3917   -7.9225 C   0  0  0  0  0  0  0  0  0  0  0  0
  -32.8064  -16.8502   -4.3848 O   0  0  0  0  0  0  0  0  0  0  0  0
  -31.6370  -16.0904   -8.8574 C   0  0  0  0  0  0  0  0  0  0  0  0
  -34.7531  -15.4577   -6.8868 C   0  0  0  0  0  0  0  0  0  0  0  0
  -32.8413  -21.9482  -11.0656 O   0  0  0  0  0  0  0  0  0  0  0  0
  -34.4514  -16.1126   -5.6979 N   0  0  0  0  0  0  0  0  0  0  0  0
  -31.6965  -23.3379  -12.4639 C   0  0  0  0  0  0  0  0  0  0  0  0
  -35.9710  -14.9795   -6.9041 O   0  0  0  0  0  0  0  0  0  0  0  0
  2  7  1  0
  2 11  1  0
  2 14  2  0
  3  7  1  0
  3  9  1  0
  3 12  2  0
  9 11  1  0
 11 13  2  3
  1  7  2  0
  1  8  1  0
  4  9  2  0
  4 10  1  0
  6 14  1  0
  6  8  2  0
  5 12  1  0
  5 10  2  0
  6 15  1  0
 13 16  1  0
 16 17  1  0
 17 18  2  0
 16 19  2  0
 18 20  1  0
 18 21  1  0
 21 22  1  0
 20 23  2  0
 19 24  1  0
 21 24  2  0
 22 25  1  0
 15 26  1  0
 20 27  1  0
 25 27  1  0
 15 28  1  0
 25 29  2  0
M  END
$$$$

     RDKit          3D

 29 33  0  0  0  0  0  0  0  0999 V2000
  -28.1100  -21.1250  -11.7830 C   0  0  0  0  0  0  0  0  0  0  0  0
  -29.1380  -20.1340   -9.8150 C   0  0  0  0  0  0  0  0  0  0  0  0
  -26.8640  -19.6120  -10.1060 C   0  0  0  0  0  0  0  0  0  0  0  0
  -26.3470  -18.1740   -8.1970 C   0  0  0  0  0  0  0  0  0  0  0  0
  -24.6510  -18.7420   -9.8540 C   0  0  0  0  0  0  0  0  0  0  0  0
  -30.4600  -21.5050  -11.2460 C   0  0  0  0  0  0  0  0  0  0  0  0
  -28.0100  -20.3360  -10.6490 C   0  0  0  0  0  0  0  0  0  0  0  0
  -29.3460  -21.7100  -12.0780 C   0  0  0  0  0  0  0  0  0  0  0  0
  -27.2470  -18.9400   -8.9190 C   0  0  0  0  0  0  0  0  0  0  0  0
  -25.0380  -18.0800   -8.6770 C   0  0  0  0  0  0  0  0  0  0  0  0
  -28.6770  -19.2570   -8.7170 C   0  0  0  0  0  0  0  0  0  0  0  0
  -25.5650  -19.5150  -10.5780 C   0  0  0  0  0  0  0  0  0  0  0  0
  -29.5470  -18.7540   -7.5500 C   0  0  0  0  0  0  0  0  0  0  0  0
  -30.3630  -20.7110  -10.1010 C   0  0  0  0  0  0  0  0  0  0  0  0
  -30.2682  -17.6131   -7.7884 C   0  0  0  0  0  0  0  0  0  0  0  0
  -31.0512  -17.2267   -6.5999 C   0  0  0  0  0  0  0  0  0  0  0  0
  -32.1941  -16.7694   -6.5333 C   0  0  0  0  0  0  0  0  0  0  0  0
  -30.4316  -17.4800   -5.2841 C   0  0  0  0  0  0  0  0  0  0  0  0
  -31.8829  -22.2506  -11.5300 C   0  0  0  0  0  0  0  0  0  0  0  0
  -32.8883  -16.4134   -5.3770 C   0  0  0  0  0  0  0  0  0  0  0  0
  -34.2529  -15.9154   -5.4308 O   0  0  0  0  0  0  0  0  0  0  0  0
  -32.4013  -16.8278   -4.1472 C   0  0  0  0  0  0  0  0  0  0  0  0
  -35.0367  -16.1206   -4.3782 C   0  0  0  0  0  0  0  0  0  0  0  0
  -33.1075  -16.7414   -2.8905 C   0  0  0  0  0  0  0  0  0  0  0  0
  -34.4946  -16.3594   -3.0386 C   0  0  0  0  0  0  0  0  0  0  0  0
  -32.7277  -17.0297   -1.7331 O   0  0  0  0  0  0  0  0  0  0  0  0
  -31.7577  -23.4939  -11.9138 O   0  0  0  0  0  0  0  0  0  0  0  0
  -32.9578  -21.6347  -11.4149 O   0  0  0  0  0  0  0  0  0  0  0  0
  -31.1354  -17.4263   -4.1545 C   0  0  0  0  0  0  0  0  0  0  0  0
  2  7  1  0
  2 11  1  0
  2 14  2  0
  3  7  1  0
  3  9  1  0
  3 12  2  0
  9 11  1  0
 11 13  2  3
  1  7  2  0
  1  8  1  0
  4  9  2  0
  4 10  1  0
  6 14  1  0
  6  8  2  0
  5 12  1  0
  5 10  2  0
 13 15  1  0
 15 16  1  0
 16 17  2  0
 16 18  1  0
  6 19  1  0
 17 20  1  0
 20 21  1  0
 20 22  2  0
 21 23  1  0
 22 24  1  0
 23 25  2  0
 24 25  1  0
 24 26  2  0
 19 27  2  0
 19 28  1  0
 18 29  2  0
 22 29  1  0
M  END
$$$$

     RDKit          3D

 30 34  0  0  0  0  0  0  0  0999 V2000
  -28.1100  -21.1250  -11.7830 C   0  0  0  0  0  0  0  0  0  0  0  0
  -29.1380  -20.1340   -9.8150 C   0  0  0  0  0  0  0  0  0  0  0  0
  -26.8640  -19.6120  -10.1060 C   0  0  0  0  0  0  0  0  0  0  0  0
  -26.3470  -18.1740   -8.1970 C   0  0  0  0  0  0  0  0  0  0  0  0
  -24.6510  -18.7420   -9.8540 C   0  0  0  0  0  0  0  0  0  0  0  0
  -30.4600  -21.5050  -11.2460 C   0  0  0  0  0  0  0  0  0  0  0  0
  -28.0100  -20.3360  -10.6490 C   0  0  0  0  0  0  0  0  0  0  0  0
  -29.3460  -21.7100  -12.0780 C   0  0  0  0  0  0  0  0  0  0  0  0
  -27.2470  -18.9400   -8.9190 C   0  0  0  0  0  0  0  0  0  0  0  0
  -25.0380  -18.0800   -8.6770 C   0  0  0  0  0  0  0  0  0  0  0  0
  -28.6770  -19.2570   -8.7170 C   0  0  0  0  0  0  0  0  0  0  0  0
  -25.5650  -19.5150  -10.5780 C   0  0  0  0  0  0  0  0  0  0  0  0
  -29.5470  -18.7540   -7.5500 C   0  0  0  0  0  0  0  0  0  0  0  0
  -30.3630  -20.7110  -10.1010 C   0  0  0  0  0  0  0  0  0  0  0  0
  -30.2682  -17.6131   -7.7884 C   0  0  0  0  0  0  0  0  0  0  0  0
  -31.8870  -22.2541  -11.5313 C   0  0  0  0  0  0  0  0  0  0  0  0
  -32.7254  -21.5357  -12.0641 N   0  0  0  0  0  0  0  0  0  0  0  0
  -31.0736  -17.2543   -6.6113 C   0  0  0  0  0  0  0  0  0  0  0  0
  -30.7236  -17.8863   -5.4155 C   0  0  0  0  0  0  0  0  0  0  0  0
  -31.7509  -23.2330  -12.6227 C   0  0  0  0  0  0  0  0  0  0  0  0
  -32.5892  -17.6053   -6.8422 O   0  0  0  0  0  0  0  0  0  0  0  0
  -33.4464  -17.5234   -5.7929 C   0  0  0  0  0  0  0  0  0  0  0  0
  -29.5514  -17.3986   -4.8823 O   0  0  0  0  0  0  0  0  0  0  0  0
  -31.8602  -17.9094   -4.3872 C   0  0  0  0  0  0  0  0  0  0  0  0
  -32.8443  -22.7490  -13.3424 C   0  0  0  0  0  0  0  0  0  0  0  0
  -34.7455  -17.6310   -6.4432 O   0  0  0  0  0  0  0  0  0  0  0  0
  -33.2606  -21.5592  -13.0646 C   0  0  0  0  0  0  0  0  0  0  0  0
  -33.1463  -18.2147   -4.7123 C   0  0  0  0  0  0  0  0  0  0  0  0
  -33.2177  -19.6337   -5.0973 O   0  0  0  0  0  0  0  0  0  0  0  0
  -31.3939  -18.6953   -3.1557 O   0  0  0  0  0  0  0  0  0  0  0  0
  2  7  1  0
  2 11  1  0
  2 14  2  0
  3  7  1  0
  3  9  1  0
  3 12  2  0
  9 11  1  0
 11 13  2  3
  1  7  2  0
  1  8  1  0
  4  9  2  0
  4 10  1  0
  6 14  1  0
  6  8  2  0
  5 12  1  0
  5 10  2  0
 13 15  1  0
  6 16  1  0
 16 17  1  0
 15 18  1  0
 18 19  1  0
 16 20  1  0
 18 21  1  0
 21 22  1  0
 19 23  1  0
 19 24  1  0
 20 25  1  0
 22 26  1  0
 17 27  1  0
 25 27  1  0
 22 28  1  0
 24 28  1  0
 28 29  1  0
 24 30  1  0
M  END
$$$$

     RDKit          3D

 31 34  0  0  0  0  0  0  0  0999 V2000
  -28.1100  -21.1250  -11.7830 C   0  0  0  0  0  0  0  0  0  0  0  0
  -29.1380  -20.1340   -9.8150 C   0  0  0  0  0  0  0  0  0  0  0  0
  -26.8640  -19.6120  -10.1060 C   0  0  0  0  0  0  0  0  0  0  0  0
  -26.3470  -18.1740   -8.1970 C   0  0  0  0  0  0  0  0  0  0  0  0
  -24.6510  -18.7420   -9.8540 C   0  0  0  0  0  0  0  0  0  0  0  0
  -30.4600  -21.5050  -11.2460 C   0  0  0  0  0  0  0  0  0  0  0  0
  -28.0100  -20.3360  -10.6490 C   0  0  0  0  0  0  0  0  0  0  0  0
  -29.3460  -21.7100  -12.0780 C   0  0  0  0  0  0  0  0  0  0  0  0
  -27.2470  -18.9400   -8.9190 C   0  0  0  0  0  0  0  0  0  0  0  0
  -25.0380  -18.0800   -8.6770 C   0  0  0  0  0  0  0  0  0  0  0  0
  -28.6770  -19.2570   -8.7170 C   0  0  0  0  0  0  0  0  0  0  0  0
  -25.5650  -19.5150  -10.5780 C   0  0  0  0  0  0  0  0  0  0  0  0
  -29.5470  -18.7540   -7.5500 C   0  0  0  0  0  0  0  0  0  0  0  0
  -30.3630  -20.7110  -10.1010 C   0  0  0  0  0  0  0  0  0  0  0  0
  -30.2682  -17.6131   -7.7884 C   0  0  0  0  0  0  0  0  0  0  0  0
  -31.8870  -22.2541  -11.5313 C   0  0  0  0  0  0  0  0  0  0  0  0
  -32.7254  -21.5357  -12.0641 N   0  0  0  0  0  0  0  0  0  0  0  0
  -31.0736  -17.2543   -6.6113 C   0  0  0  0  0  0  0  0  0  0  0  0
  -32.2159  -16.5872   -6.7105 C   0  0  0  0  0  0  0  0  0  0  0  0
  -33.1818  -16.4839   -5.6345 C   0  0  0  0  0  0  0  0  0  0  0  0
  -34.1735  -15.6607   -5.7846 O   0  0  0  0  0  0  0  0  0  0  0  0
  -33.0426  -17.2658   -4.5272 C   0  0  0  0  0  0  0  0  0  0  0  0
  -34.3694  -14.9819   -6.9358 C   0  0  0  0  0  0  0  0  0  0  0  0
  -32.1500  -18.2027   -4.3492 C   0  0  0  0  0  0  0  0  0  0  0  0
  -32.0262  -19.1495   -3.3252 C   0  0  0  0  0  0  0  0  0  0  0  0
  -31.8041  -18.8311   -2.1548 O   0  0  0  0  0  0  0  0  0  0  0  0
  -32.5527  -20.9533  -13.2917 C   0  0  0  0  0  0  0  0  0  0  0  0
  -31.8343  -21.4164  -14.2169 O   0  0  0  0  0  0  0  0  0  0  0  0
  -32.6604  -20.3936   -3.4285 N   0  0  0  0  0  0  0  0  0  0  0  0
  -33.2368  -19.6739  -13.7271 C   0  0  0  0  0  0  0  0  0  0  0  0
  -31.1867  -18.4139   -5.5569 C   0  0  0  0  0  0  0  0  0  0  0  0
  2  7  1  0
  2 11  1  0
  2 14  2  0
  3  7  1  0
  3  9  1  0
  3 12  2  0
  9 11  1  0
 11 13  2  3
  1  7  2  0
  1  8  1  0
  4  9  2  0
  4 10  1  0
  6 14  1  0
  6  8  2  0
  5 12  1  0
  5 10  2  0
 13 15  1  0
  6 16  1  0
 16 17  1  0
 15 18  1  0
 18 19  2  0
 19 20  1  0
 20 21  1  0
 20 22  2  0
 21 23  1  0
 22 24  1  0
 24 25  1  0
 25 26  2  0
 17 27  1  0
 27 28  2  0
 25 29  1  0
 27 30  1  0
 18 31  1  0
 24 31  2  0
M  END
$$$$

     RDKit          3D

 31 35  0  0  0  0  0  0  0  0999 V2000
  -28.1100  -21.1250  -11.7830 C   0  0  0  0  0  0  0  0  0  0  0  0
  -29.1380  -20.1340   -9.8150 C   0  0  0  0  0  0  0  0  0  0  0  0
  -26.8640  -19.6120  -10.1060 C   0  0  0  0  0  0  0  0  0  0  0  0
  -26.3470  -18.1740   -8.1970 C   0  0  0  0  0  0  0  0  0  0  0  0
  -24.6510  -18.7420   -9.8540 C   0  0  0  0  0  0  0  0  0  0  0  0
  -30.4600  -21.5050  -11.2460 C   0  0  0  0  0  0  0  0  0  0  0  0
  -28.0100  -20.3360  -10.6490 C   0  0  0  0  0  0  0  0  0  0  0  0
  -29.3460  -21.7100  -12.0780 C   0  0  0  0  0  0  0  0  0  0  0  0
  -27.2470  -18.9400   -8.9190 C   0  0  0  0  0  0  0  0  0  0  0  0
  -25.0380  -18.0800   -8.6770 C   0  0  0  0  0  0  0  0  0  0  0  0
  -28.6770  -19.2570   -8.7170 C   0  0  0  0  0  0  0  0  0  0  0  0
  -25.5650  -19.5150  -10.5780 C   0  0  0  0  0  0  0  0  0  0  0  0
  -29.5470  -18.7540   -7.5500 C   0  0  0  0  0  0  0  0  0  0  0  0
  -30.3630  -20.7110  -10.1010 C   0  0  0  0  0  0  0  0  0  0  0  0
  -30.2682  -17.6131   -7.7884 C   0  0  0  0  0  0  0  0  0  0  0  0
  -31.0512  -17.2267   -6.5999 C   0  0  0  0  0  0  0  0  0  0  0  0
  -32.1941  -16.7694   -6.5333 C   0  0  0  0  0  0  0  0  0  0  0  0
  -31.8813  -22.2475  -11.5293 C   0  0  0  0  0  0  0  0  0  0  0  0
  -30.3477  -17.1101   -5.2995 C   0  0  0  0  0  0  0  0  0  0  0  0
  -30.9878  -16.9836   -4.1029 C   0  0  0  0  0  0  0  0  0  0  0  0
  -32.9467  -16.5430   -5.3923 C   0  0  0  0  0  0  0  0  0  0  0  0
  -30.3961  -17.1251   -2.8769 O   0  0  0  0  0  0  0  0  0  0  0  0
  -32.7414  -21.5168  -12.0288 N   0  0  0  0  0  0  0  0  0  0  0  0
  -31.7511  -23.2113  -12.6422 C   0  0  0  0  0  0  0  0  0  0  0  0
  -34.3933  -16.1774   -5.4924 C   0  0  0  0  0  0  0  0  0  0  0  0
  -32.8587  -22.7279  -13.3780 C   0  0  0  0  0  0  0  0  0  0  0  0
  -33.3132  -21.5652  -13.0392 N   0  0  0  0  0  0  0  0  0  0  0  0
  -34.8113  -15.0857   -4.9832 O   0  0  0  0  0  0  0  0  0  0  0  0
  -35.2671  -16.7738   -6.3468 O   0  0  0  0  0  0  0  0  0  0  0  0
  -32.4349  -16.7080   -4.1350 C   0  0  0  0  0  0  0  0  0  0  0  0
  -34.2453  -20.6665  -13.6568 C   0  0  0  0  0  0  0  0  0  0  0  0
  2  7  1  0
  2 11  1  0
  2 14  2  0
  3  7  1  0
  3  9  1  0
  3 12  2  0
  9 11  1  0
 11 13  2  3
  1  7  2  0
  1  8  1  0
  4  9  2  0
  4 10  1  0
  6 14  1  0
  6  8  2  0
  5 12  1  0
  5 10  2  0
 13 15  1  0
 15 16  1  0
 16 17  2  0
  6 18  1  0
 16 19  1  0
 19 20  2  0
 17 21  1  0
 20 22  1  0
 18 23  1  0
 18 24  1  0
 21 25  1  0
 24 26  1  0
 23 27  1  0
 26 27  1  0
 25 28  1  0
 25 29  2  0
 20 30  1  0
 21 30  2  0
 27 31  1  0
M  END
$$$$

     RDKit          3D

 32 36  0  0  0  0  0  0  0  0999 V2000
  -28.1100  -21.1250  -11.7830 C   0  0  0  0  0  0  0  0  0  0  0  0
  -29.1380  -20.1340   -9.8150 C   0  0  0  0  0  0  0  0  0  0  0  0
  -26.8640  -19.6120  -10.1060 C   0  0  0  0  0  0  0  0  0  0  0  0
  -26.3470  -18.1740   -8.1970 C   0  0  0  0  0  0  0  0  0  0  0  0
  -24.6510  -18.7420   -9.8540 C   0  0  0  0  0  0  0  0  0  0  0  0
  -30.4600  -21.5050  -11.2460 C   0  0  0  0  0  0  0  0  0  0  0  0
  -28.0100  -20.3360  -10.6490 C   0  0  0  0  0  0  0  0  0  0  0  0
  -29.3460  -21.7100  -12.0780 C   0  0  0  0  0  0  0  0  0  0  0  0
  -27.2470  -18.9400   -8.9190 C   0  0  0  0  0  0  0  0  0  0  0  0
  -25.0380  -18.0800   -8.6770 C   0  0  0  0  0  0  0  0  0  0  0  0
  -28.6770  -19.2570   -8.7170 C   0  0  0  0  0  0  0  0  0  0  0  0
  -25.5650  -19.5150  -10.5780 C   0  0  0  0  0  0  0  0  0  0  0  0
  -29.5470  -18.7540   -7.5500 C   0  0  0  0  0  0  0  0  0  0  0  0
  -30.3630  -20.7110  -10.1010 C   0  0  0  0  0  0  0  0  0  0  0  0
  -30.2682  -17.6131   -7.7884 C   0  0  0  0  0  0  0  0  0  0  0  0
  -31.0512  -17.2267   -6.5999 C   0  0  0  0  0  0  0  0  0  0  0  0
  -30.7450  -17.6313   -5.4512 C   0  0  0  0  0  0  0  0  0  0  0  0
  -31.8820  -22.2510  -11.5274 C   0  0  0  0  0  0  0  0  0  0  0  0
  -32.1652  -16.3316   -6.7029 C   0  0  0  0  0  0  0  0  0  0  0  0
  -32.6437  -15.8118   -7.9915 C   0  0  0  0  0  0  0  0  0  0  0  0
  -31.7576  -23.4945  -11.9074 O   0  0  0  0  0  0  0  0  0  0  0  0
  -32.6261  -15.7378   -5.5047 C   0  0  0  0  0  0  0  0  0  0  0  0
  -32.3216  -16.2610   -4.2948 C   0  0  0  0  0  0  0  0  0  0  0  0
  -31.3325  -17.3893   -4.2359 C   0  0  0  0  0  0  0  0  0  0  0  0
  -32.8930  -21.5904  -11.8701 O   0  0  0  0  0  0  0  0  0  0  0  0
  -30.9851  -17.8841   -2.9453 C   0  0  0  0  0  0  0  0  0  0  0  0
  -31.8334  -18.9530   -2.4650 C   0  0  0  0  0  0  0  0  0  0  0  0
  -32.1412  -18.9276   -1.3661 O   0  0  0  0  0  0  0  0  0  0  0  0
  -32.2497  -20.0151   -3.2564 N   0  0  0  0  0  0  0  0  0  0  0  0
  -33.6052  -15.1594   -8.1449 O   0  0  0  0  0  0  0  0  0  0  0  0
  -31.9256  -16.1953   -9.1222 N   0  0  0  0  0  0  0  0  0  0  0  0
  -30.9103  -17.1791   -9.0412 C   0  0  0  0  0  0  0  0  0  0  0  0
  2  7  1  0
  2 11  1  0
  2 14  2  0
  3  7  1  0
  3  9  1  0
  3 12  2  0
  9 11  1  0
 11 13  2  3
  1  7  2  0
  1  8  1  0
  4  9  2  0
  4 10  1  0
  6 14  1  0
  6  8  2  0
  5 12  1  0
  5 10  2  0
 13 15  1  0
 15 16  1  0
 16 17  1  0
  6 18  1  0
 16 19  2  0
 19 20  1  0
 18 21  1  0
 19 22  1  0
 22 23  2  0
 17 24  2  0
 23 24  1  0
 18 25  2  0
 24 26  1  0
 26 27  1  0
 27 28  2  0
 27 29  1  0
 20 30  2  0
 20 31  1  0
 15 32  1  0
 31 32  2  0
M  END
$$$$

     RDKit          3D

 32 36  0  0  0  0  0  0  0  0999 V2000
  -28.1100  -21.1250  -11.7830 C   0  0  0  0  0  0  0  0  0  0  0  0
  -29.1380  -20.1340   -9.8150 C   0  0  0  0  0  0  0  0  0  0  0  0
  -26.8640  -19.6120  -10.1060 C   0  0  0  0  0  0  0  0  0  0  0  0
  -26.3470  -18.1740   -8.1970 C   0  0  0  0  0  0  0  0  0  0  0  0
  -24.6510  -18.7420   -9.8540 C   0  0  0  0  0  0  0  0  0  0  0  0
  -30.4600  -21.5050  -11.2460 C   0  0  0  0  0  0  0  0  0  0  0  0
  -28.0100  -20.3360  -10.6490 C   0  0  0  0  0  0  0  0  0  0  0  0
  -29.3460  -21.7100  -12.0780 C   0  0  0  0  0  0  0  0  0  0  0  0
  -27.2470  -18.9400   -8.9190 C   0  0  0  0  0  0  0  0  0  0  0  0
  -25.0380  -18.0800   -8.6770 C   0  0  0  0  0  0  0  0  0  0  0  0
  -28.6770  -19.2570   -8.7170 C   0  0  0  0  0  0  0  0  0  0  0  0
  -25.5650  -19.5150  -10.5780 C   0  0  0  0  0  0  0  0  0  0  0  0
  -29.5470  -18.7540   -7.5500 C   0  0  0  0  0  0  0  0  0  0  0  0
  -30.3630  -20.7110  -10.1010 C   0  0  0  0  0  0  0  0  0  0  0  0
  -30.2682  -17.6131   -7.7884 C   0  0  0  0  0  0  0  0  0  0  0  0
  -31.0512  -17.2267   -6.5999 C   0  0  0  0  0  0  0  0  0  0  0  0
  -30.7450  -17.6313   -5.4512 C   0  0  0  0  0  0  0  0  0  0  0  0
  -31.8820  -22.2510  -11.5274 C   0  0  0  0  0  0  0  0  0  0  0  0
  -32.1652  -16.3316   -6.7029 C   0  0  0  0  0  0  0  0  0  0  0  0
  -32.6437  -15.8118   -7.9915 C   0  0  0  0  0  0  0  0  0  0  0  0
  -31.7576  -23.4945  -11.9074 O   0  0  0  0  0  0  0  0  0  0  0  0
  -32.6261  -15.7378   -5.5047 C   0  0  0  0  0  0  0  0  0  0  0  0
  -32.3216  -16.2610   -4.2948 C   0  0  0  0  0  0  0  0  0  0  0  0
  -31.3325  -17.3893   -4.2359 C   0  0  0  0  0  0  0  0  0  0  0  0
  -32.8930  -21.5904  -11.8701 O   0  0  0  0  0  0  0  0  0  0  0  0
  -30.9851  -17.8841   -2.9453 C   0  0  0  0  0  0  0  0  0  0  0  0
  -31.8334  -18.9530   -2.4650 C   0  0  0  0  0  0  0  0  0  0  0  0
  -32.1412  -18.9276   -1.3661 O   0  0  0  0  0  0  0  0  0  0  0  0
  -32.2497  -20.0151   -3.2564 N   0  0  0  0  0  0  0  0  0  0  0  0
  -33.6052  -15.1594   -8.1449 O   0  0  0  0  0  0  0  0  0  0  0  0
  -31.9256  -16.1953   -9.1222 N   0  0  0  0  0  0  0  0  0  0  0  0
  -30.7223  -17.1004   -9.0656 C   0  0  0  0  0  0  0  0  0  0  0  0
  2  7  1  0
  2 11  1  0
  2 14  2  0
  3  7  1  0
  3  9  1  0
  3 12  2  0
  9 11  1  0
 11 13  2  3
  1  7  2  0
  1  8  1  0
  4  9  2  0
  4 10  1  0
  6 14  1  0
  6  8  2  0
  5 12  1  0
  5 10  2  0
 13 15  1  0
 15 16  1  0
 16 17  1  0
  6 18  1  0
 16 19  2  0
 19 20  1  0
 18 21  1  0
 19 22  1  0
 22 23  2  0
 17 24  2  0
 23 24  1  0
 18 25  2  0
 24 26  1  0
 26 27  1  0
 27 28  2  0
 27 29  1  0
 20 30  2  0
 20 31  1  0
 15 32  2  0
 31 32  1  0
M  END
$$$$

     RDKit          3D

 33 38  0  0  0  0  0  0  0  0999 V2000
  -28.1100  -21.1250  -11.7830 C   0  0  0  0  0  0  0  0  0  0  0  0
  -29.1380  -20.1340   -9.8150 C   0  0  0  0  0  0  0  0  0  0  0  0
  -26.8640  -19.6120  -10.1060 C   0  0  0  0  0  0  0  0  0  0  0  0
  -26.3470  -18.1740   -8.1970 C   0  0  0  0  0  0  0  0  0  0  0  0
  -24.6510  -18.7420   -9.8540 C   0  0  0  0  0  0  0  0  0  0  0  0
  -30.4600  -21.5050  -11.2460 C   0  0  0  0  0  0  0  0  0  0  0  0
  -28.0100  -20.3360  -10.6490 C   0  0  0  0  0  0  0  0  0  0  0  0
  -29.3460  -21.7100  -12.0780 C   0  0  0  0  0  0  0  0  0  0  0  0
  -27.2470  -18.9400   -8.9190 C   0  0  0  0  0  0  0  0  0  0  0  0
  -25.0380  -18.0800   -8.6770 C   0  0  0  0  0  0  0  0  0  0  0  0
  -28.6770  -19.2570   -8.7170 C   0  0  0  0  0  0  0  0  0  0  0  0
  -25.5650  -19.5150  -10.5780 C   0  0  0  0  0  0  0  0  0  0  0  0
  -29.5470  -18.7540   -7.5500 C   0  0  0  0  0  0  0  0  0  0  0  0
  -30.3630  -20.7110  -10.1010 C   0  0  0  0  0  0  0  0  0  0  0  0
  -30.2682  -17.6131   -7.7884 C   0  0  0  0  0  0  0  0  0  0  0  0
  -31.6351  -22.1828  -11.6616 C   0  0  0  0  0  0  0  0  0  0  0  0
  -31.0673  -17.2422   -6.6095 C   0  0  0  0  0  0  0  0  0  0  0  0
  -30.8352  -17.6300   -5.4844 C   0  0  0  0  0  0  0  0  0  0  0  0
  -31.8425  -17.5181   -4.4068 C   0  0  0  0  0  0  0  0  0  0  0  0
  -32.1307  -16.5826   -6.6226 C   0  0  0  0  0  0  0  0  0  0  0  0
  -31.6243  -18.1297   -3.1096 C   0  0  0  0  0  0  0  0  0  0  0  0
  -32.0763  -22.3605  -12.7922 O   0  0  0  0  0  0  0  0  0  0  0  0
  -33.1031  -17.2333   -4.9218 C   0  0  0  0  0  0  0  0  0  0  0  0
  -32.3609  -15.8243   -8.0851 C   0  0  0  0  0  0  0  0  0  0  0  0
  -30.5140  -17.0076   -9.0631 C   0  0  0  0  0  0  0  0  0  0  0  0
  -34.1808  -17.2542   -3.8711 C   0  0  0  0  0  0  0  0  0  0  0  0
  -34.1342  -18.3053   -2.7912 C   0  0  0  0  0  0  0  0  0  0  0  0
  -32.6340  -22.3780  -10.6829 O   0  0  0  0  0  0  0  0  0  0  0  0
  -33.2102  -16.4142   -5.9729 C   0  0  0  0  0  0  0  0  0  0  0  0
  -29.6068  -17.1712  -10.1282 C   0  0  0  0  0  0  0  0  0  0  0  0
  -32.7576  -18.5897   -2.3095 C   0  0  0  0  0  0  0  0  0  0  0  0
  -32.5173  -19.3023   -1.3566 O   0  0  0  0  0  0  0  0  0  0  0  0
  -31.4464  -16.0001   -9.1807 C   0  0  0  0  0  0  0  0  0  0  0  0
  2  7  1  0
  2 11  1  0
  2 14  2  0
  3  7  1  0
  3  9  1  0
  3 12  2  0
  9 11  1  0
 11 13  2  3
  1  7  2  0
  1  8  1  0
  4  9  2  0
  4 10  1  0
  6 14  1  0
  6  8  2  0
  5 12  1  0
  5 10  2  0
 13 15  1  0
  6 16  1  0
 15 17  1  0
 17 18  1  0
 18 19  2  0
 17 20  2  0
 19 21  1  0
 16 22  1  0
 19 23  1  0
 20 24  1  0
 15 25  2  0
 23 26  1  0
 26 27  1  0
 16 28  2  0
 20 29  1  0
 23 29  2  0
 25 30  1  0
 21 31  2  0
 27 31  1  0
 31 32  1  0
 24 33  2  0
 25 33  1  0
M  END
$$$$

     RDKit          3D

 33 37  0  0  0  0  0  0  0  0999 V2000
  -28.1100  -21.1250  -11.7830 C   0  0  0  0  0  0  0  0  0  0  0  0
  -29.1380  -20.1340   -9.8150 C   0  0  0  0  0  0  0  0  0  0  0  0
  -26.8640  -19.6120  -10.1060 C   0  0  0  0  0  0  0  0  0  0  0  0
  -26.3470  -18.1740   -8.1970 C   0  0  0  0  0  0  0  0  0  0  0  0
  -24.6510  -18.7420   -9.8540 C   0  0  0  0  0  0  0  0  0  0  0  0
  -30.4600  -21.5050  -11.2460 C   0  0  0  0  0  0  0  0  0  0  0  0
  -28.0100  -20.3360  -10.6490 C   0  0  0  0  0  0  0  0  0  0  0  0
  -29.3460  -21.7100  -12.0780 C   0  0  0  0  0  0  0  0  0  0  0  0
  -27.2470  -18.9400   -8.9190 C   0  0  0  0  0  0  0  0  0  0  0  0
  -25.0380  -18.0800   -8.6770 C   0  0  0  0  0  0  0  0  0  0  0  0
  -28.6770  -19.2570   -8.7170 C   0  0  0  0  0  0  0  0  0  0  0  0
  -25.5650  -19.5150  -10.5780 C   0  0  0  0  0  0  0  0  0  0  0  0
  -29.5470  -18.7540   -7.5500 C   0  0  0  0  0  0  0  0  0  0  0  0
  -30.3630  -20.7110  -10.1010 C   0  0  0  0  0  0  0  0  0  0  0  0
  -31.6372  -22.1895  -11.6585 N   0  0  0  0  0  0  0  0  0  0  0  0
  -30.2571  -17.6003   -7.7868 C   0  0  0  0  0  0  0  0  0  0  0  0
  -31.0594  -17.2358   -6.6100 C   0  0  0  0  0  0  0  0  0  0  0  0
  -32.1858  -16.7350   -6.5482 C   0  0  0  0  0  0  0  0  0  0  0  0
  -30.4666  -16.8425   -8.5780 C   0  0  0  0  0  0  0  0  0  0  0  0
  -30.7509  -17.8768   -5.2076 C   0  0  0  0  0  0  0  0  0  0  0  0
  -31.5475  -15.9306   -8.6576 C   0  0  0  0  0  0  0  0  0  0  0  0
  -31.6609  -23.1357  -12.5757 C   0  0  0  0  0  0  0  0  0  0  0  0
  -32.2772  -22.5757  -13.7724 C   0  0  0  0  0  0  0  0  0  0  0  0
  -31.8015  -18.1898   -4.3531 C   0  0  0  0  0  0  0  0  0  0  0  0
  -31.8993  -19.4733   -3.7888 C   0  0  0  0  0  0  0  0  0  0  0  0
  -32.9104  -21.6266  -11.3353 C   0  0  0  0  0  0  0  0  0  0  0  0
  -33.1242  -20.1662   -3.5435 C   0  0  0  0  0  0  0  0  0  0  0  0
  -34.0883  -19.6273   -3.9626 O   0  0  0  0  0  0  0  0  0  0  0  0
  -33.0318  -21.1545   -2.9348 O   0  0  0  0  0  0  0  0  0  0  0  0
  -33.5781  -21.9633  -13.5175 C   0  0  0  0  0  0  0  0  0  0  0  0
  -33.1183  -16.5545   -5.5189 F   0  0  0  0  0  0  0  0  0  0  0  0
  -32.4388  -15.8252   -7.6884 C   0  0  0  0  0  0  0  0  0  0  0  0
  -33.7274  -21.3963  -12.4217 C   0  0  0  0  0  0  0  0  0  0  0  0
  2  7  1  0
  2 11  1  0
  2 14  2  0
  3  7  1  0
  3  9  1  0
  3 12  2  0
  9 11  1  0
 11 13  2  3
  1  7  2  0
  1  8  1  0
  4  9  2  0
  4 10  1  0
  6 14  1  0
  6  8  2  0
  5 12  1  0
  5 10  2  0
  6 15  1  0
 13 16  1  0
 16 17  1  0
 17 18  2  0
 16 19  2  0
 17 20  1  0
 19 21  1  0
 15 22  1  0
 22 23  1  0
 20 24  1  0
 24 25  1  0
 15 26  1  0
 25 27  1  0
 27 28  2  0
 27 29  1  0
 23 30  1  0
 18 31  1  0
 18 32  1  0
 21 32  2  0
 26 33  1  0
 30 33  1  0
M  END
$$$$

     RDKit          3D

 34 38  0  0  0  0  0  0  0  0999 V2000
  -28.1100  -21.1250  -11.7830 C   0  0  0  0  0  0  0  0  0  0  0  0
  -29.1380  -20.1340   -9.8150 C   0  0  0  0  0  0  0  0  0  0  0  0
  -26.8640  -19.6120  -10.1060 C   0  0  0  0  0  0  0  0  0  0  0  0
  -26.3470  -18.1740   -8.1970 C   0  0  0  0  0  0  0  0  0  0  0  0
  -24.6510  -18.7420   -9.8540 C   0  0  0  0  0  0  0  0  0  0  0  0
  -30.4600  -21.5050  -11.2460 C   0  0  0  0  0  0  0  0  0  0  0  0
  -28.0100  -20.3360  -10.6490 C   0  0  0  0  0  0  0  0  0  0  0  0
  -29.3460  -21.7100  -12.0780 C   0  0  0  0  0  0  0  0  0  0  0  0
  -27.2470  -18.9400   -8.9190 C   0  0  0  0  0  0  0  0  0  0  0  0
  -25.0380  -18.0800   -8.6770 C   0  0  0  0  0  0  0  0  0  0  0  0
  -28.6770  -19.2570   -8.7170 C   0  0  0  0  0  0  0  0  0  0  0  0
  -25.5650  -19.5150  -10.5780 C   0  0  0  0  0  0  0  0  0  0  0  0
  -29.5470  -18.7540   -7.5500 C   0  0  0  0  0  0  0  0  0  0  0  0
  -30.3630  -20.7110  -10.1010 C   0  0  0  0  0  0  0  0  0  0  0  0
  -30.2682  -17.6131   -7.7884 C   0  0  0  0  0  0  0  0  0  0  0  0
  -31.8870  -22.2541  -11.5313 C   0  0  0  0  0  0  0  0  0  0  0  0
  -31.0748  -17.2494   -6.6123 C   0  0  0  0  0  0  0  0  0  0  0  0
  -32.7363  -21.5240  -12.0456 N   0  0  0  0  0  0  0  0  0  0  0  0
  -32.2123  -16.5880   -6.7015 C   0  0  0  0  0  0  0  0  0  0  0  0
  -30.4388  -16.8913   -8.9113 C   0  0  0  0  0  0  0  0  0  0  0  0
  -30.8655  -17.8672   -5.3205 C   0  0  0  0  0  0  0  0  0  0  0  0
  -33.2233  -16.3508   -5.7356 C   0  0  0  0  0  0  0  0  0  0  0  0
  -34.3840  -15.6550   -5.9943 O   0  0  0  0  0  0  0  0  0  0  0  0
  -31.7328  -17.7891   -4.2474 C   0  0  0  0  0  0  0  0  0  0  0  0
  -31.6153  -18.4750   -3.0538 C   0  0  0  0  0  0  0  0  0  0  0  0
  -30.8026  -17.9969   -2.1260 O   0  0  0  0  0  0  0  0  0  0  0  0
  -31.5288  -15.9400   -9.0167 C   0  0  0  0  0  0  0  0  0  0  0  0
  -32.2894  -19.6579   -2.7888 C   0  0  0  0  0  0  0  0  0  0  0  0
  -31.9740  -23.5070  -11.4686 O   0  0  0  0  0  0  0  0  0  0  0  0
  -32.5991  -20.6275   -3.6921 O   0  0  0  0  0  0  0  0  0  0  0  0
  -33.0517  -16.9928   -4.5530 C   0  0  0  0  0  0  0  0  0  0  0  0
  -35.4585  -15.6435   -5.1599 C   0  0  0  0  0  0  0  0  0  0  0  0
  -32.3627  -15.7780   -7.9944 C   0  0  0  0  0  0  0  0  0  0  0  0
  -32.8709  -19.9930   -1.6509 N   0  0  0  0  0  0  0  0  0  0  0  0
  2  7  1  0
  2 11  1  0
  2 14  2  0
  3  7  1  0
  3  9  1  0
  3 12  2  0
  9 11  1  0
 11 13  2  3
  1  7  2  0
  1  8  1  0
  4  9  2  0
  4 10  1  0
  6 14  1  0
  6  8  2  0
  5 12  1  0
  5 10  2  0
 13 15  1  0
  6 16  1  0
 15 17  1  0
 16 18  1  0
 17 19  2  0
 15 20  2  0
 17 21  1  0
 19 22  1  0
 22 23  1  0
 21 24  2  0
 24 25  1  0
 25 26  2  0
 20 27  1  0
 25 28  1  0
 16 29  2  0
 28 30  2  0
 22 31  2  0
 24 31  1  0
 23 32  1  0
 19 33  1  0
 27 33  2  0
 28 34  1  0
M  END
$$$$

     RDKit          3D

 34 40  0  0  0  0  0  0  0  0999 V2000
  -28.1100  -21.1250  -11.7830 C   0  0  0  0  0  0  0  0  0  0  0  0
  -29.1380  -20.1340   -9.8150 C   0  0  0  0  0  0  0  0  0  0  0  0
  -26.8640  -19.6120  -10.1060 C   0  0  0  0  0  0  0  0  0  0  0  0
  -26.3470  -18.1740   -8.1970 C   0  0  0  0  0  0  0  0  0  0  0  0
  -24.6510  -18.7420   -9.8540 C   0  0  0  0  0  0  0  0  0  0  0  0
  -30.4600  -21.5050  -11.2460 C   0  0  0  0  0  0  0  0  0  0  0  0
  -28.0100  -20.3360  -10.6490 C   0  0  0  0  0  0  0  0  0  0  0  0
  -29.3460  -21.7100  -12.0780 C   0  0  0  0  0  0  0  0  0  0  0  0
  -27.2470  -18.9400   -8.9190 C   0  0  0  0  0  0  0  0  0  0  0  0
  -25.0380  -18.0800   -8.6770 C   0  0  0  0  0  0  0  0  0  0  0  0
  -28.6770  -19.2570   -8.7170 C   0  0  0  0  0  0  0  0  0  0  0  0
  -25.5650  -19.5150  -10.5780 C   0  0  0  0  0  0  0  0  0  0  0  0
  -29.5470  -18.7540   -7.5500 C   0  0  0  0  0  0  0  0  0  0  0  0
  -30.3630  -20.7110  -10.1010 C   0  0  0  0  0  0  0  0  0  0  0  0
  -30.2682  -17.6131   -7.7884 C   0  0  0  0  0  0  0  0  0  0  0  0
  -31.0512  -17.2267   -6.5999 C   0  0  0  0  0  0  0  0  0  0  0  0
  -30.7450  -17.6313   -5.4512 C   0  0  0  0  0  0  0  0  0  0  0  0
  -31.8820  -22.2510  -11.5274 C   0  0  0  0  0  0  0  0  0  0  0  0
  -31.4242  -15.7458   -6.5094 C   0  0  0  0  0  0  0  0  0  0  0  0
  -31.8288  -17.6863   -4.3624 C   0  0  0  0  0  0  0  0  0  0  0  0
  -31.7779  -16.6005   -3.6423 C   0  0  0  0  0  0  0  0  0  0  0  0
  -32.8184  -15.4996   -3.9541 C   0  0  0  0  0  0  0  0  0  0  0  0
  -31.7519  -23.4919  -11.9242 O   0  0  0  0  0  0  0  0  0  0  0  0
  -33.1651  -17.8466   -5.0868 C   0  0  0  0  0  0  0  0  0  0  0  0
  -34.3155  -17.9852   -4.3406 C   0  0  0  0  0  0  0  0  0  0  0  0
  -35.2298  -18.8215   -4.7793 O   0  0  0  0  0  0  0  0  0  0  0  0
  -31.6372  -18.9964   -3.5598 C   0  0  0  0  0  0  0  0  0  0  0  0
  -33.1820  -16.5601   -6.0510 C   0  0  0  0  0  0  0  0  0  0  0  0
  -32.9330  -19.7683   -3.2906 C   0  0  0  0  0  0  0  0  0  0  0  0
  -33.3835  -15.4395   -5.2116 C   0  0  0  0  0  0  0  0  0  0  0  0
  -34.8199  -16.9239   -3.6666 C   0  0  0  0  0  0  0  0  0  0  0  0
  -32.7753  -22.0961  -10.4517 O   0  0  0  0  0  0  0  0  0  0  0  0
  -34.4188  -15.5067   -3.8948 C   0  0  0  0  0  0  0  0  0  0  0  0
  -32.6877  -21.1340   -3.1351 O   0  0  0  0  0  0  0  0  0  0  0  0
  2  7  1  0
  2 11  1  0
  2 14  2  0
  3  7  1  0
  3  9  1  0
  3 12  2  0
  9 11  1  0
 11 13  2  3
  1  7  2  0
  1  8  1  0
  4  9  2  0
  4 10  1  0
  6 14  1  0
  6  8  2  0
  5 12  1  0
  5 10  2  0
 13 15  1  0
 15 16  1  0
 16 17  1  0
  6 18  1  0
 16 19  1  0
 17 20  1  0
 20 21  1  0
 21 22  1  0
 18 23  1  0
 20 24  1  0
 24 25  1  0
 25 26  2  0
 20 27  1  0
 19 28  1  0
 24 28  1  0
 27 29  1  0
 22 30  1  0
 28 30  1  0
 25 31  1  0
 18 32  1  0
 22 33  1  0
 30 33  1  0
 31 33  1  0
 29 34  1  0
M  END
$$$$

     RDKit          3D

 34 38  0  0  0  0  0  0  0  0999 V2000
  -28.1100  -21.1250  -11.7830 C   0  0  0  0  0  0  0  0  0  0  0  0
  -29.1380  -20.1340   -9.8150 C   0  0  0  0  0  0  0  0  0  0  0  0
  -26.8640  -19.6120  -10.1060 C   0  0  0  0  0  0  0  0  0  0  0  0
  -26.3470  -18.1740   -8.1970 C   0  0  0  0  0  0  0  0  0  0  0  0
  -24.6510  -18.7420   -9.8540 C   0  0  0  0  0  0  0  0  0  0  0  0
  -30.4600  -21.5050  -11.2460 C   0  0  0  0  0  0  0  0  0  0  0  0
  -28.0100  -20.3360  -10.6490 C   0  0  0  0  0  0  0  0  0  0  0  0
  -29.3460  -21.7100  -12.0780 C   0  0  0  0  0  0  0  0  0  0  0  0
  -27.2470  -18.9400   -8.9190 C   0  0  0  0  0  0  0  0  0  0  0  0
  -25.0380  -18.0800   -8.6770 C   0  0  0  0  0  0  0  0  0  0  0  0
  -28.6770  -19.2570   -8.7170 C   0  0  0  0  0  0  0  0  0  0  0  0
  -25.5650  -19.5150  -10.5780 C   0  0  0  0  0  0  0  0  0  0  0  0
  -29.5470  -18.7540   -7.5500 C   0  0  0  0  0  0  0  0  0  0  0  0
  -30.3630  -20.7110  -10.1010 C   0  0  0  0  0  0  0  0  0  0  0  0
  -31.6372  -22.1895  -11.6585 N   0  0  0  0  0  0  0  0  0  0  0  0
  -30.2571  -17.6003   -7.7868 C   0  0  0  0  0  0  0  0  0  0  0  0
  -31.0594  -17.2358   -6.6100 C   0  0  0  0  0  0  0  0  0  0  0  0
  -32.1858  -16.7350   -6.5482 C   0  0  0  0  0  0  0  0  0  0  0  0
  -30.4666  -16.8425   -8.5780 C   0  0  0  0  0  0  0  0  0  0  0  0
  -30.7509  -17.8768   -5.2076 C   0  0  0  0  0  0  0  0  0  0  0  0
  -31.5475  -15.9306   -8.6576 C   0  0  0  0  0  0  0  0  0  0  0  0
  -31.6609  -23.1357  -12.5757 C   0  0  0  0  0  0  0  0  0  0  0  0
  -31.8021  -18.1892   -4.3528 C   0  0  0  0  0  0  0  0  0  0  0  0
  -32.2526  -22.5704  -13.7818 C   0  0  0  0  0  0  0  0  0  0  0  0
  -32.8281  -21.3926  -11.9325 C   0  0  0  0  0  0  0  0  0  0  0  0
  -31.8952  -19.4660   -3.7783 C   0  0  0  0  0  0  0  0  0  0  0  0
  -33.0862  -19.9858   -3.2533 C   0  0  0  0  0  0  0  0  0  0  0  0
  -33.1083  -21.5235  -13.2137 C   0  0  0  0  0  0  0  0  0  0  0  0
  -33.0724  -21.2242   -3.2150 O   0  0  0  0  0  0  0  0  0  0  0  0
  -33.9806  -19.2476   -2.8367 O   0  0  0  0  0  0  0  0  0  0  0  0
  -32.9445  -20.1787  -13.9227 C   0  0  0  0  0  0  0  0  0  0  0  0
  -33.5019  -19.0973  -13.3430 O   0  0  0  0  0  0  0  0  0  0  0  0
  -32.4197  -15.8470   -7.7096 C   0  0  0  0  0  0  0  0  0  0  0  0
  -32.1481  -20.0232  -14.9211 O   0  0  0  0  0  0  0  0  0  0  0  0
  2  7  1  0
  2 11  1  0
  2 14  2  0
  3  7  1  0
  3  9  1  0
  3 12  2  0
  9 11  1  0
 11 13  2  3
  1  7  2  0
  1  8  1  0
  4  9  2  0
  4 10  1  0
  6 14  1  0
  6  8  2  0
  5 12  1  0
  5 10  2  0
  6 15  1  0
 13 16  1  0
 16 17  1  0
 17 18  2  0
 16 19  2  0
 17 20  1  0
 19 21  1  0
 15 22  1  0
 20 23  1  0
 22 24  1  0
 15 25  1  0
 23 26  1  0
 26 27  1  0
 24 28  1  0
 25 28  1  0
 27 29  1  0
 27 30  2  0
 28 31  1  0
 31 32  1  0
 18 33  1  0
 21 33  2  0
 31 34  2  0
M  END
$$$$

     RDKit          3D

 35 40  0  0  0  0  0  0  0  0999 V2000
  -28.1100  -21.1250  -11.7830 C   0  0  0  0  0  0  0  0  0  0  0  0
  -29.1380  -20.1340   -9.8150 C   0  0  0  0  0  0  0  0  0  0  0  0
  -26.8640  -19.6120  -10.1060 C   0  0  0  0  0  0  0  0  0  0  0  0
  -26.3470  -18.1740   -8.1970 C   0  0  0  0  0  0  0  0  0  0  0  0
  -24.6510  -18.7420   -9.8540 C   0  0  0  0  0  0  0  0  0  0  0  0
  -30.4600  -21.5050  -11.2460 C   0  0  0  0  0  0  0  0  0  0  0  0
  -28.0100  -20.3360  -10.6490 C   0  0  0  0  0  0  0  0  0  0  0  0
  -29.3460  -21.7100  -12.0780 C   0  0  0  0  0  0  0  0  0  0  0  0
  -27.2470  -18.9400   -8.9190 C   0  0  0  0  0  0  0  0  0  0  0  0
  -25.0380  -18.0800   -8.6770 C   0  0  0  0  0  0  0  0  0  0  0  0
  -28.6770  -19.2570   -8.7170 C   0  0  0  0  0  0  0  0  0  0  0  0
  -25.5650  -19.5150  -10.5780 C   0  0  0  0  0  0  0  0  0  0  0  0
  -29.5470  -18.7540   -7.5500 C   0  0  0  0  0  0  0  0  0  0  0  0
  -30.3630  -20.7110  -10.1010 C   0  0  0  0  0  0  0  0  0  0  0  0
  -30.2682  -17.6131   -7.7884 C   0  0  0  0  0  0  0  0  0  0  0  0
  -31.8870  -22.2541  -11.5313 C   0  0  0  0  0  0  0  0  0  0  0  0
  -31.0748  -17.2494   -6.6123 C   0  0  0  0  0  0  0  0  0  0  0  0
  -32.1997  -16.7400   -6.5513 C   0  0  0  0  0  0  0  0  0  0  0  0
  -30.5068  -16.8684   -8.5943 C   0  0  0  0  0  0  0  0  0  0  0  0
  -32.7518  -21.5174  -12.0209 O   0  0  0  0  0  0  0  0  0  0  0  0
  -33.2878  -21.2182  -13.0788 C   0  0  0  0  0  0  0  0  0  0  0  0
  -34.2580  -20.2950  -13.2615 C   0  0  0  0  0  0  0  0  0  0  0  0
  -32.8024  -21.9608  -14.1589 O   0  0  0  0  0  0  0  0  0  0  0  0
  -30.9054  -18.0619   -5.2028 C   0  0  0  0  0  0  0  0  0  0  0  0
  -29.6166  -16.8840   -9.8870 O   0  0  0  0  0  0  0  0  0  0  0  0
  -32.0002  -18.4699   -4.5000 C   0  0  0  0  0  0  0  0  0  0  0  0
  -33.1410  -17.7332   -4.6116 C   0  0  0  0  0  0  0  0  0  0  0  0
  -33.3209  -16.6554   -5.9510 C   0  0  0  0  0  0  0  0  0  0  0  0
  -34.2066  -17.9150   -3.6881 C   0  0  0  0  0  0  0  0  0  0  0  0
  -31.8777  -19.3285   -3.4363 C   0  0  0  0  0  0  0  0  0  0  0  0
  -32.3802  -15.8022   -7.8530 C   0  0  0  0  0  0  0  0  0  0  0  0
  -31.3924  -15.7988   -8.9503 C   0  0  0  0  0  0  0  0  0  0  0  0
  -34.1278  -18.9255   -2.7672 C   0  0  0  0  0  0  0  0  0  0  0  0
  -32.9869  -19.7063   -2.6933 C   0  0  0  0  0  0  0  0  0  0  0  0
  -32.9526  -20.8830   -2.1870 F   0  0  0  0  0  0  0  0  0  0  0  0
  2  7  1  0
  2 11  1  0
  2 14  2  0
  3  7  1  0
  3  9  1  0
  3 12  2  0
  9 11  1  0
 11 13  2  3
  1  7  2  0
  1  8  1  0
  4  9  2  0
  4 10  1  0
  6 14  1  0
  6  8  2  0
  5 12  1  0
  5 10  2  0
 13 15  1  0
  6 16  1  0
 15 17  1  0
 17 18  2  0
 15 19  2  0
 16 20  1  0
 20 21  1  0
 21 22  1  0
 21 23  2  0
 17 24  1  0
 19 25  1  0
 24 26  1  0
 26 27  2  0
 18 28  1  0
 27 28  1  0
 27 29  1  0
 26 30  1  0
 18 31  1  0
 19 32  1  0
 31 32  2  0
 29 33  2  0
 30 34  2  0
 33 34  1  0
 34 35  1  0
M  END
$$$$

     RDKit          3D

 35 39  0  0  0  0  0  0  0  0999 V2000
  -28.1100  -21.1250  -11.7830 C   0  0  0  0  0  0  0  0  0  0  0  0
  -29.1380  -20.1340   -9.8150 C   0  0  0  0  0  0  0  0  0  0  0  0
  -26.8640  -19.6120  -10.1060 C   0  0  0  0  0  0  0  0  0  0  0  0
  -26.3470  -18.1740   -8.1970 C   0  0  0  0  0  0  0  0  0  0  0  0
  -24.6510  -18.7420   -9.8540 C   0  0  0  0  0  0  0  0  0  0  0  0
  -30.4600  -21.5050  -11.2460 C   0  0  0  0  0  0  0  0  0  0  0  0
  -28.0100  -20.3360  -10.6490 C   0  0  0  0  0  0  0  0  0  0  0  0
  -29.3460  -21.7100  -12.0780 C   0  0  0  0  0  0  0  0  0  0  0  0
  -27.2470  -18.9400   -8.9190 C   0  0  0  0  0  0  0  0  0  0  0  0
  -25.0380  -18.0800   -8.6770 C   0  0  0  0  0  0  0  0  0  0  0  0
  -28.6770  -19.2570   -8.7170 C   0  0  0  0  0  0  0  0  0  0  0  0
  -25.5650  -19.5150  -10.5780 C   0  0  0  0  0  0  0  0  0  0  0  0
  -29.5470  -18.7540   -7.5500 C   0  0  0  0  0  0  0  0  0  0  0  0
  -30.3630  -20.7110  -10.1010 C   0  0  0  0  0  0  0  0  0  0  0  0
  -30.2682  -17.6131   -7.7884 C   0  0  0  0  0  0  0  0  0  0  0  0
  -31.0512  -17.2267   -6.5999 C   0  0  0  0  0  0  0  0  0  0  0  0
  -30.7450  -17.6313   -5.4512 C   0  0  0  0  0  0  0  0  0  0  0  0
  -31.8820  -22.2510  -11.5274 C   0  0  0  0  0  0  0  0  0  0  0  0
  -31.4242  -15.7458   -6.5094 C   0  0  0  0  0  0  0  0  0  0  0  0
  -31.8288  -17.6863   -4.3624 C   0  0  0  0  0  0  0  0  0  0  0  0
  -31.7779  -16.6005   -3.6423 C   0  0  0  0  0  0  0  0  0  0  0  0
  -31.9846  -16.7046   -2.2856 C   0  0  0  0  0  0  0  0  0  0  0  0
  -31.2386  -15.1243   -7.6151 O   0  0  0  0  0  0  0  0  0  0  0  0
  -31.8253  -15.5318   -1.3822 C   0  0  0  0  0  0  0  0  0  0  0  0
  -32.7491  -21.5193  -12.0110 O   0  0  0  0  0  0  0  0  0  0  0  0
  -32.0148  -15.7815   -0.0332 C   0  0  0  0  0  0  0  0  0  0  0  0
  -31.6132  -23.3351  -12.5666 O   0  0  0  0  0  0  0  0  0  0  0  0
  -32.5669  -16.7395    0.5093 C   0  0  0  0  0  0  0  0  0  0  0  0
  -32.5922  -17.8153   -1.5047 C   0  0  0  0  0  0  0  0  0  0  0  0
  -31.5089  -15.0810   -5.3524 N   0  0  0  0  0  0  0  0  0  0  0  0
  -33.1607  -21.0664  -12.9938 C   0  0  0  0  0  0  0  0  0  0  0  0
  -32.7213  -21.5886  -14.1262 O   0  0  0  0  0  0  0  0  0  0  0  0
  -32.8785  -17.9220   -0.2343 C   0  0  0  0  0  0  0  0  0  0  0  0
  -31.7801  -15.3353   -4.1759 C   0  0  0  0  0  0  0  0  0  0  0  0
  -33.6491  -19.7693  -13.2630 C   0  0  0  0  0  0  0  0  0  0  0  0
  2  7  1  0
  2 11  1  0
  2 14  2  0
  3  7  1  0
  3  9  1  0
  3 12  2  0
  9 11  1  0
 11 13  2  3
  1  7  2  0
  1  8  1  0
  4  9  2  0
  4 10  1  0
  6 14  1  0
  6  8  2  0
  5 12  1  0
  5 10  2  0
 13 15  1  0
 15 16  1  0
 16 17  1  0
  6 18  1  0
 16 19  1  0
 17 20  1  0
 20 21  1  0
 21 22  2  3
 19 23  2  0
 22 24  1  0
 18 25  1  0
 24 26  1  0
 18 27  1  0
 26 28  2  0
 22 29  1  0
 19 30  1  0
 25 31  1  0
 31 32  2  0
 28 33  1  0
 29 33  2  0
 21 34  1  0
 30 34  2  0
 31 35  1  0
M  END
$$$$

     RDKit          3D

 35 39  0  0  0  0  0  0  0  0999 V2000
  -28.1100  -21.1250  -11.7830 C   0  0  0  0  0  0  0  0  0  0  0  0
  -29.1380  -20.1340   -9.8150 C   0  0  0  0  0  0  0  0  0  0  0  0
  -26.8640  -19.6120  -10.1060 C   0  0  0  0  0  0  0  0  0  0  0  0
  -26.3470  -18.1740   -8.1970 C   0  0  0  0  0  0  0  0  0  0  0  0
  -24.6510  -18.7420   -9.8540 C   0  0  0  0  0  0  0  0  0  0  0  0
  -30.4600  -21.5050  -11.2460 C   0  0  0  0  0  0  0  0  0  0  0  0
  -28.0100  -20.3360  -10.6490 C   0  0  0  0  0  0  0  0  0  0  0  0
  -29.3460  -21.7100  -12.0780 C   0  0  0  0  0  0  0  0  0  0  0  0
  -27.2470  -18.9400   -8.9190 C   0  0  0  0  0  0  0  0  0  0  0  0
  -25.0380  -18.0800   -8.6770 C   0  0  0  0  0  0  0  0  0  0  0  0
  -28.6770  -19.2570   -8.7170 C   0  0  0  0  0  0  0  0  0  0  0  0
  -25.5650  -19.5150  -10.5780 C   0  0  0  0  0  0  0  0  0  0  0  0
  -29.5470  -18.7540   -7.5500 C   0  0  0  0  0  0  0  0  0  0  0  0
  -30.3630  -20.7110  -10.1010 C   0  0  0  0  0  0  0  0  0  0  0  0
  -30.2682  -17.6131   -7.7884 C   0  0  0  0  0  0  0  0  0  0  0  0
  -31.0512  -17.2267   -6.5999 C   0  0  0  0  0  0  0  0  0  0  0  0
  -30.7450  -17.6313   -5.4512 C   0  0  0  0  0  0  0  0  0  0  0  0
  -31.8820  -22.2510  -11.5274 C   0  0  0  0  0  0  0  0  0  0  0  0
  -31.4242  -15.7458   -6.5094 C   0  0  0  0  0  0  0  0  0  0  0  0
  -31.8288  -17.6863   -4.3624 C   0  0  0  0  0  0  0  0  0  0  0  0
  -31.7779  -16.6005   -3.6423 C   0  0  0  0  0  0  0  0  0  0  0  0
  -31.9846  -16.7046   -2.2856 C   0  0  0  0  0  0  0  0  0  0  0  0
  -31.2386  -15.1243   -7.6151 O   0  0  0  0  0  0  0  0  0  0  0  0
  -31.8253  -15.5318   -1.3822 C   0  0  0  0  0  0  0  0  0  0  0  0
  -32.7491  -21.5193  -12.0110 O   0  0  0  0  0  0  0  0  0  0  0  0
  -32.0148  -15.7815   -0.0332 C   0  0  0  0  0  0  0  0  0  0  0  0
  -31.6132  -23.3351  -12.5666 O   0  0  0  0  0  0  0  0  0  0  0  0
  -32.5669  -16.7395    0.5093 C   0  0  0  0  0  0  0  0  0  0  0  0
  -32.5922  -17.8153   -1.5047 C   0  0  0  0  0  0  0  0  0  0  0  0
  -31.5089  -15.0810   -5.3524 N   0  0  0  0  0  0  0  0  0  0  0  0
  -33.1607  -21.0664  -12.9938 C   0  0  0  0  0  0  0  0  0  0  0  0
  -32.7213  -21.5886  -14.1262 O   0  0  0  0  0  0  0  0  0  0  0  0
  -32.8785  -17.9220   -0.2343 C   0  0  0  0  0  0  0  0  0  0  0  0
  -31.8926  -15.3208   -4.2355 C   0  0  0  0  0  0  0  0  0  0  0  0
  -34.3360  -20.2892  -13.1952 C   0  0  0  0  0  0  0  0  0  0  0  0
  2  7  1  0
  2 11  1  0
  2 14  2  0
  3  7  1  0
  3  9  1  0
  3 12  2  0
  9 11  1  0
 11 13  2  3
  1  7  2  0
  1  8  1  0
  4  9  2  0
  4 10  1  0
  6 14  1  0
  6  8  2  0
  5 12  1  0
  5 10  2  0
 13 15  1  0
 15 16  1  0
 16 17  1  0
  6 18  1  0
 16 19  1  0
 17 20  1  0
 20 21  1  0
 21 22  2  3
 19 23  2  0
 22 24  1  0
 18 25  1  0
 24 26  1  0
 18 27  1  0
 26 28  2  0
 22 29  1  0
 19 30  1  0
 25 31  1  0
 31 32  2  0
 28 33  1  0
 29 33  2  0
 21 34  1  0
 30 34  1  0
 31 35  1  0
M  END
$$$$

     RDKit          3D

 36 41  0  0  0  0  0  0  0  0999 V2000
  -28.1100  -21.1250  -11.7830 C   0  0  0  0  0  0  0  0  0  0  0  0
  -29.1380  -20.1340   -9.8150 C   0  0  0  0  0  0  0  0  0  0  0  0
  -26.8640  -19.6120  -10.1060 C   0  0  0  0  0  0  0  0  0  0  0  0
  -26.3470  -18.1740   -8.1970 C   0  0  0  0  0  0  0  0  0  0  0  0
  -24.6510  -18.7420   -9.8540 C   0  0  0  0  0  0  0  0  0  0  0  0
  -30.4600  -21.5050  -11.2460 C   0  0  0  0  0  0  0  0  0  0  0  0
  -28.0100  -20.3360  -10.6490 C   0  0  0  0  0  0  0  0  0  0  0  0
  -29.3460  -21.7100  -12.0780 C   0  0  0  0  0  0  0  0  0  0  0  0
  -27.2470  -18.9400   -8.9190 C   0  0  0  0  0  0  0  0  0  0  0  0
  -25.0380  -18.0800   -8.6770 C   0  0  0  0  0  0  0  0  0  0  0  0
  -28.6770  -19.2570   -8.7170 C   0  0  0  0  0  0  0  0  0  0  0  0
  -25.5650  -19.5150  -10.5780 C   0  0  0  0  0  0  0  0  0  0  0  0
  -29.5470  -18.7540   -7.5500 C   0  0  0  0  0  0  0  0  0  0  0  0
  -30.3630  -20.7110  -10.1010 C   0  0  0  0  0  0  0  0  0  0  0  0
  -30.2682  -17.6131   -7.7884 C   0  0  0  0  0  0  0  0  0  0  0  0
  -31.6351  -22.1828  -11.6616 C   0  0  0  0  0  0  0  0  0  0  0  0
  -31.0673  -17.2422   -6.6095 C   0  0  0  0  0  0  0  0  0  0  0  0
  -30.8352  -17.6300   -5.4844 C   0  0  0  0  0  0  0  0  0  0  0  0
  -31.8425  -17.5181   -4.4068 C   0  0  0  0  0  0  0  0  0  0  0  0
  -31.9122  -16.2767   -6.9594 C   0  0  0  0  0  0  0  0  0  0  0  0
  -31.8043  -18.1809   -3.1628 C   0  0  0  0  0  0  0  0  0  0  0  0
  -31.1219  -17.7015   -2.1569 C   0  0  0  0  0  0  0  0  0  0  0  0
  -30.7808  -17.0114   -8.9472 C   0  0  0  0  0  0  0  0  0  0  0  0
  -32.7933  -15.6006   -5.8736 C   0  0  0  0  0  0  0  0  0  0  0  0
  -31.2503  -18.4850   -0.9471 C   0  0  0  0  0  0  0  0  0  0  0  0
  -31.6527  -15.9410   -8.7818 C   0  0  0  0  0  0  0  0  0  0  0  0
  -32.2544  -19.6026   -1.1942 C   0  0  0  0  0  0  0  0  0  0  0  0
  -32.5813  -19.4352   -3.0304 C   0  0  0  0  0  0  0  0  0  0  0  0
  -33.0423  -20.0546   -4.3257 O   0  0  0  0  0  0  0  0  0  0  0  0
  -31.5515  -14.7608   -9.1426 C   0  0  0  0  0  0  0  0  0  0  0  0
  -32.0625  -22.3964  -12.7860 O   0  0  0  0  0  0  0  0  0  0  0  0
  -32.6225  -14.0021   -9.1137 O   0  0  0  0  0  0  0  0  0  0  0  0
  -30.5912  -14.2952   -9.8497 O   0  0  0  0  0  0  0  0  0  0  0  0
  -32.8929  -16.4185   -4.7446 C   0  0  0  0  0  0  0  0  0  0  0  0
  -32.6492  -22.3222  -10.6893 O   0  0  0  0  0  0  0  0  0  0  0  0
  -32.6787  -20.1941   -2.0730 C   0  0  0  0  0  0  0  0  0  0  0  0
  2  7  1  0
  2 11  1  0
  2 14  2  0
  3  7  1  0
  3  9  1  0
  3 12  2  0
  9 11  1  0
 11 13  2  3
  1  7  2  0
  1  8  1  0
  4  9  2  0
  4 10  1  0
  6 14  1  0
  6  8  2  0
  5 12  1  0
  5 10  2  0
 13 15  1  0
  6 16  1  0
 15 17  1  0
 17 18  1  0
 18 19  2  0
 17 20  2  0
 19 21  1  0
 21 22  2  0
 15 23  2  0
 20 24  1  0
 22 25  1  0
 20 26  1  0
 23 26  1  0
 25 27  2  0
 21 28  1  0
 28 29  1  0
 26 30  1  0
 16 31  1  0
 30 32  2  0
 30 33  1  0
 19 34  1  0
 24 34  2  0
 16 35  2  0
 27 36  1  0
 28 36  2  0
M  END
$$$$

     RDKit          3D

 36 42  0  0  0  0  0  0  0  0999 V2000
  -28.1100  -21.1250  -11.7830 C   0  0  0  0  0  0  0  0  0  0  0  0
  -29.1380  -20.1340   -9.8150 C   0  0  0  0  0  0  0  0  0  0  0  0
  -26.8640  -19.6120  -10.1060 C   0  0  0  0  0  0  0  0  0  0  0  0
  -26.3470  -18.1740   -8.1970 C   0  0  0  0  0  0  0  0  0  0  0  0
  -24.6510  -18.7420   -9.8540 C   0  0  0  0  0  0  0  0  0  0  0  0
  -30.4600  -21.5050  -11.2460 C   0  0  0  0  0  0  0  0  0  0  0  0
  -28.0100  -20.3360  -10.6490 C   0  0  0  0  0  0  0  0  0  0  0  0
  -29.3460  -21.7100  -12.0780 C   0  0  0  0  0  0  0  0  0  0  0  0
  -27.2470  -18.9400   -8.9190 C   0  0  0  0  0  0  0  0  0  0  0  0
  -25.0380  -18.0800   -8.6770 C   0  0  0  0  0  0  0  0  0  0  0  0
  -28.6770  -19.2570   -8.7170 C   0  0  0  0  0  0  0  0  0  0  0  0
  -25.5650  -19.5150  -10.5780 C   0  0  0  0  0  0  0  0  0  0  0  0
  -29.5470  -18.7540   -7.5500 C   0  0  0  0  0  0  0  0  0  0  0  0
  -30.3630  -20.7110  -10.1010 C   0  0  0  0  0  0  0  0  0  0  0  0
  -30.2682  -17.6131   -7.7884 C   0  0  0  0  0  0  0  0  0  0  0  0
  -31.6351  -22.1828  -11.6616 C   0  0  0  0  0  0  0  0  0  0  0  0
  -31.0673  -17.2422   -6.6095 C   0  0  0  0  0  0  0  0  0  0  0  0
  -30.8352  -17.6300   -5.4844 C   0  0  0  0  0  0  0  0  0  0  0  0
  -31.8425  -17.5181   -4.4068 C   0  0  0  0  0  0  0  0  0  0  0  0
  -31.9122  -16.2767   -6.9594 C   0  0  0  0  0  0  0  0  0  0  0  0
  -31.8043  -18.1809   -3.1628 C   0  0  0  0  0  0  0  0  0  0  0  0
  -31.1219  -17.7015   -2.1569 C   0  0  0  0  0  0  0  0  0  0  0  0
  -30.7808  -17.0114   -8.9472 C   0  0  0  0  0  0  0  0  0  0  0  0
  -32.7933  -15.6006   -5.8736 C   0  0  0  0  0  0  0  0  0  0  0  0
  -31.2503  -18.4850   -0.9471 C   0  0  0  0  0  0  0  0  0  0  0  0
  -32.7296  -16.3311   -4.6265 C   0  0  0  0  0  0  0  0  0  0  0  0
  -32.1008  -22.3315  -12.7818 O   0  0  0  0  0  0  0  0  0  0  0  0
  -32.4513  -19.4285   -3.0523 C   0  0  0  0  0  0  0  0  0  0  0  0
  -30.6632  -17.8953    0.2536 O   0  0  0  0  0  0  0  0  0  0  0  0
  -32.8071  -21.4952  -10.8409 O   0  0  0  0  0  0  0  0  0  0  0  0
  -33.7682  -20.8715  -11.8111 C   0  0  0  0  0  0  0  0  0  0  0  0
  -31.9957  -19.5271   -0.9555 C   0  0  0  0  0  0  0  0  0  0  0  0
  -33.4198  -21.7367  -13.0591 C   0  0  0  0  0  0  0  0  0  0  0  0
  -32.6030  -20.0834   -2.0627 C   0  0  0  0  0  0  0  0  0  0  0  0
  -31.7899  -16.0074   -8.3855 O   0  0  0  0  0  0  0  0  0  0  0  0
  -32.9876  -19.9647   -4.4053 O   0  0  0  0  0  0  0  0  0  0  0  0
  2  7  1  0
  2 11  1  0
  2 14  2  0
  3  7  1  0
  3  9  1  0
  3 12  2  0
  9 11  1  0
 11 13  2  3
  1  7  2  0
  1  8  1  0
  4  9  2  0
  4 10  1  0
  6 14  1  0
  6  8  2  0
  5 12  1  0
  5 10  2  0
 13 15  1  0
  6 16  1  0
 15 17  1  0
 17 18  1  0
 18 19  2  0
 17 20  2  0
 19 21  1  0
 21 22  2  0
 15 23  2  0
 20 24  1  0
 22 25  1  0
 19 26  1  0
 24 26  2  0
 16 27  1  0
 21 28  1  0
 25 29  1  0
 16 30  1  0
 30 31  1  0
 25 32  2  0
 27 33  1  0
 31 33  1  0
 28 34  2  0
 32 34  1  0
 20 35  1  0
 23 35  1  0
 28 36  1  0
M  END
$$$$

     RDKit          3D

 37 42  0  0  0  0  0  0  0  0999 V2000
  -28.1100  -21.1250  -11.7830 C   0  0  0  0  0  0  0  0  0  0  0  0
  -29.1380  -20.1340   -9.8150 C   0  0  0  0  0  0  0  0  0  0  0  0
  -26.8640  -19.6120  -10.1060 C   0  0  0  0  0  0  0  0  0  0  0  0
  -26.3470  -18.1740   -8.1970 C   0  0  0  0  0  0  0  0  0  0  0  0
  -24.6510  -18.7420   -9.8540 C   0  0  0  0  0  0  0  0  0  0  0  0
  -30.4600  -21.5050  -11.2460 C   0  0  0  0  0  0  0  0  0  0  0  0
  -28.0100  -20.3360  -10.6490 C   0  0  0  0  0  0  0  0  0  0  0  0
  -29.3460  -21.7100  -12.0780 C   0  0  0  0  0  0  0  0  0  0  0  0
  -27.2470  -18.9400   -8.9190 C   0  0  0  0  0  0  0  0  0  0  0  0
  -25.0380  -18.0800   -8.6770 C   0  0  0  0  0  0  0  0  0  0  0  0
  -28.6770  -19.2570   -8.7170 C   0  0  0  0  0  0  0  0  0  0  0  0
  -25.5650  -19.5150  -10.5780 C   0  0  0  0  0  0  0  0  0  0  0  0
  -29.5470  -18.7540   -7.5500 C   0  0  0  0  0  0  0  0  0  0  0  0
  -30.3630  -20.7110  -10.1010 C   0  0  0  0  0  0  0  0  0  0  0  0
  -30.2682  -17.6131   -7.7884 C   0  0  0  0  0  0  0  0  0  0  0  0
  -31.0512  -17.2267   -6.5999 C   0  0  0  0  0  0  0  0  0  0  0  0
  -30.7450  -17.6313   -5.4512 C   0  0  0  0  0  0  0  0  0  0  0  0
  -31.8820  -22.2510  -11.5274 C   0  0  0  0  0  0  0  0  0  0  0  0
  -31.4242  -15.7458   -6.5094 C   0  0  0  0  0  0  0  0  0  0  0  0
  -31.8288  -17.6863   -4.3624 C   0  0  0  0  0  0  0  0  0  0  0  0
  -31.7779  -16.6005   -3.6423 C   0  0  0  0  0  0  0  0  0  0  0  0
  -31.9846  -16.7046   -2.2856 C   0  0  0  0  0  0  0  0  0  0  0  0
  -31.2386  -15.1243   -7.6151 O   0  0  0  0  0  0  0  0  0  0  0  0
  -31.8253  -15.5318   -1.3822 C   0  0  0  0  0  0  0  0  0  0  0  0
  -32.7491  -21.5193  -12.0110 O   0  0  0  0  0  0  0  0  0  0  0  0
  -32.0148  -15.7815   -0.0332 C   0  0  0  0  0  0  0  0  0  0  0  0
  -31.6132  -23.3351  -12.5666 O   0  0  0  0  0  0  0  0  0  0  0  0
  -32.5669  -16.7395    0.5093 C   0  0  0  0  0  0  0  0  0  0  0  0
  -32.5922  -17.8153   -1.5047 C   0  0  0  0  0  0  0  0  0  0  0  0
  -31.5089  -15.0810   -5.3524 N   0  0  0  0  0  0  0  0  0  0  0  0
  -33.1607  -21.0664  -12.9938 C   0  0  0  0  0  0  0  0  0  0  0  0
  -32.7213  -21.5886  -14.1262 O   0  0  0  0  0  0  0  0  0  0  0  0
  -32.8785  -17.9220   -0.2343 C   0  0  0  0  0  0  0  0  0  0  0  0
  -31.4311  -15.3678   -4.1089 C   0  0  0  0  0  0  0  0  0  0  0  0
  -34.0454  -19.9846  -13.2126 C   0  0  0  0  0  0  0  0  0  0  0  0
  -31.0751  -14.4689   -3.0323 C   0  0  0  0  0  0  0  0  0  0  0  0
  -31.2402  -14.4769   -1.8970 C   0  0  0  0  0  0  0  0  0  0  0  0
  2  7  1  0
  2 11  1  0
  2 14  2  0
  3  7  1  0
  3  9  1  0
  3 12  2  0
  9 11  1  0
 11 13  2  3
  1  7  2  0
  1  8  1  0
  4  9  2  0
  4 10  1  0
  6 14  1  0
  6  8  2  0
  5 12  1  0
  5 10  2  0
 13 15  1  0
 15 16  1  0
 16 17  1  0
  6 18  1  0
 16 19  1  0
 17 20  1  0
 20 21  1  0
 21 22  2  0
 19 23  2  0
 22 24  1  0
 18 25  1  0
 24 26  1  0
 18 27  1  0
 26 28  2  0
 22 29  1  0
 19 30  1  0
 25 31  1  0
 31 32  2  0
 28 33  1  0
 29 33  2  0
 21 34  1  0
 30 34  1  0
 31 35  1  0
 34 36  2  0
 24 37  2  0
 36 37  1  0
M  END
$$$$

     RDKit          3D

 37 43  0  0  0  0  0  0  0  0999 V2000
  -28.1100  -21.1250  -11.7830 C   0  0  0  0  0  0  0  0  0  0  0  0
  -29.1380  -20.1340   -9.8150 C   0  0  0  0  0  0  0  0  0  0  0  0
  -26.8640  -19.6120  -10.1060 C   0  0  0  0  0  0  0  0  0  0  0  0
  -26.3470  -18.1740   -8.1970 C   0  0  0  0  0  0  0  0  0  0  0  0
  -24.6510  -18.7420   -9.8540 C   0  0  0  0  0  0  0  0  0  0  0  0
  -30.4600  -21.5050  -11.2460 C   0  0  0  0  0  0  0  0  0  0  0  0
  -28.0100  -20.3360  -10.6490 C   0  0  0  0  0  0  0  0  0  0  0  0
  -29.3460  -21.7100  -12.0780 C   0  0  0  0  0  0  0  0  0  0  0  0
  -27.2470  -18.9400   -8.9190 C   0  0  0  0  0  0  0  0  0  0  0  0
  -25.0380  -18.0800   -8.6770 C   0  0  0  0  0  0  0  0  0  0  0  0
  -28.6770  -19.2570   -8.7170 C   0  0  0  0  0  0  0  0  0  0  0  0
  -25.5650  -19.5150  -10.5780 C   0  0  0  0  0  0  0  0  0  0  0  0
  -29.5470  -18.7540   -7.5500 C   0  0  0  0  0  0  0  0  0  0  0  0
  -30.3630  -20.7110  -10.1010 C   0  0  0  0  0  0  0  0  0  0  0  0
  -31.6372  -22.1895  -11.6585 N   0  0  0  0  0  0  0  0  0  0  0  0
  -30.2571  -17.6003   -7.7868 C   0  0  0  0  0  0  0  0  0  0  0  0
  -31.0594  -17.2358   -6.6100 C   0  0  0  0  0  0  0  0  0  0  0  0
  -32.1858  -16.7350   -6.5482 C   0  0  0  0  0  0  0  0  0  0  0  0
  -30.4666  -16.8425   -8.5780 C   0  0  0  0  0  0  0  0  0  0  0  0
  -30.9060  -18.0473   -5.1963 C   0  0  0  0  0  0  0  0  0  0  0  0
  -31.6657  -23.1435  -12.5686 C   0  0  0  0  0  0  0  0  0  0  0  0
  -32.4005  -15.7956   -7.7590 C   0  0  0  0  0  0  0  0  0  0  0  0
  -33.5120  -14.9613   -7.8632 O   0  0  0  0  0  0  0  0  0  0  0  0
  -32.9398  -22.8604  -13.3392 C   0  0  0  0  0  0  0  0  0  0  0  0
  -31.8216  -17.8552   -4.2469 C   0  0  0  0  0  0  0  0  0  0  0  0
  -33.8165  -22.0303  -12.4771 C   0  0  0  0  0  0  0  0  0  0  0  0
  -31.6574  -16.8340   -3.5217 C   0  0  0  0  0  0  0  0  0  0  0  0
  -33.1616  -17.8723   -5.0009 C   0  0  0  0  0  0  0  0  0  0  0  0
  -31.9986  -19.2998   -3.5734 C   0  0  0  0  0  0  0  0  0  0  0  0
  -33.0338  -20.1334   -3.7062 C   0  0  0  0  0  0  0  0  0  0  0  0
  -34.1759  -18.7834   -4.6916 C   0  0  0  0  0  0  0  0  0  0  0  0
  -31.5103  -15.8904   -8.8620 C   0  0  0  0  0  0  0  0  0  0  0  0
  -32.8144  -21.3006  -11.6934 C   0  0  0  0  0  0  0  0  0  0  0  0
  -34.1506  -19.8431   -4.1923 O   0  0  0  0  0  0  0  0  0  0  0  0
  -33.3117  -16.7008   -5.7684 C   0  0  0  0  0  0  0  0  0  0  0  0
  -33.7318  -14.3665   -8.7887 C   0  0  0  0  0  0  0  0  0  0  0  0
  -32.8908  -21.3668   -3.0800 O   0  0  0  0  0  0  0  0  0  0  0  0
  2  7  1  0
  2 11  1  0
  2 14  2  0
  3  7  1  0
  3  9  1  0
  3 12  2  0
  9 11  1  0
 11 13  2  3
  1  7  2  0
  1  8  1  0
  4  9  2  0
  4 10  1  0
  6 14  1  0
  6  8  2  0
  5 12  1  0
  5 10  2  0
  6 15  1  0
 13 16  1  0
 16 17  1  0
 17 18  2  0
 16 19  2  0
 17 20  1  0
 15 21  1  0
 18 22  1  0
 22 23  1  0
 21 24  1  0
 20 25  1  0
 24 26  1  0
 25 27  1  0
 25 28  1  0
 25 29  1  0
 29 30  2  0
 28 31  2  0
 19 32  1  0
 22 32  2  0
 15 33  1  0
 26 33  1  0
 30 34  1  0
 31 34  1  0
 18 35  1  0
 28 35  1  0
 23 36  1  0
 30 37  1  0
M  END
$$$$

     RDKit          3D

 37 42  0  0  0  0  0  0  0  0999 V2000
  -28.1100  -21.1250  -11.7830 C   0  0  0  0  0  0  0  0  0  0  0  0
  -29.1380  -20.1340   -9.8150 C   0  0  0  0  0  0  0  0  0  0  0  0
  -26.8640  -19.6120  -10.1060 C   0  0  0  0  0  0  0  0  0  0  0  0
  -26.3470  -18.1740   -8.1970 C   0  0  0  0  0  0  0  0  0  0  0  0
  -24.6510  -18.7420   -9.8540 C   0  0  0  0  0  0  0  0  0  0  0  0
  -30.4600  -21.5050  -11.2460 C   0  0  0  0  0  0  0  0  0  0  0  0
  -28.0100  -20.3360  -10.6490 C   0  0  0  0  0  0  0  0  0  0  0  0
  -29.3460  -21.7100  -12.0780 C   0  0  0  0  0  0  0  0  0  0  0  0
  -27.2470  -18.9400   -8.9190 C   0  0  0  0  0  0  0  0  0  0  0  0
  -25.0380  -18.0800   -8.6770 C   0  0  0  0  0  0  0  0  0  0  0  0
  -28.6770  -19.2570   -8.7170 C   0  0  0  0  0  0  0  0  0  0  0  0
  -25.5650  -19.5150  -10.5780 C   0  0  0  0  0  0  0  0  0  0  0  0
  -29.5470  -18.7540   -7.5500 C   0  0  0  0  0  0  0  0  0  0  0  0
  -30.3630  -20.7110  -10.1010 C   0  0  0  0  0  0  0  0  0  0  0  0
  -30.2682  -17.6131   -7.7884 C   0  0  0  0  0  0  0  0  0  0  0  0
  -31.0512  -17.2267   -6.5999 C   0  0  0  0  0  0  0  0  0  0  0  0
  -30.7450  -17.6313   -5.4512 C   0  0  0  0  0  0  0  0  0  0  0  0
  -31.8820  -22.2510  -11.5274 C   0  0  0  0  0  0  0  0  0  0  0  0
  -32.1652  -16.3316   -6.7029 C   0  0  0  0  0  0  0  0  0  0  0  0
  -32.6437  -15.8118   -7.9915 C   0  0  0  0  0  0  0  0  0  0  0  0
  -31.7576  -23.4945  -11.9074 O   0  0  0  0  0  0  0  0  0  0  0  0
  -30.9479  -17.1078   -8.9937 C   0  0  0  0  0  0  0  0  0  0  0  0
  -31.5649  -17.4409   -4.2751 C   0  0  0  0  0  0  0  0  0  0  0  0
  -33.6607  -14.9086   -8.1259 C   0  0  0  0  0  0  0  0  0  0  0  0
  -31.9607  -16.2639   -9.2079 C   0  0  0  0  0  0  0  0  0  0  0  0
  -32.7833  -22.0749  -10.4694 O   0  0  0  0  0  0  0  0  0  0  0  0
  -32.0069  -18.6691   -3.5169 N   0  0  0  0  0  0  0  0  0  0  0  0
  -31.0512  -16.4692   -3.5344 C   0  0  0  0  0  0  0  0  0  0  0  0
  -32.4772  -19.7830   -4.1047 C   0  0  0  0  0  0  0  0  0  0  0  0
  -32.7911  -20.8643   -3.3172 N   0  0  0  0  0  0  0  0  0  0  0  0
  -32.4927  -18.7010   -2.2418 C   0  0  0  0  0  0  0  0  0  0  0  0
  -34.8594  -15.2203   -8.0558 O   0  0  0  0  0  0  0  0  0  0  0  0
  -32.3439  -17.7318   -1.3135 C   0  0  0  0  0  0  0  0  0  0  0  0
  -33.3791  -13.6272   -8.3239 O   0  0  0  0  0  0  0  0  0  0  0  0
  -30.2815  -15.5478   -3.8396 O   0  0  0  0  0  0  0  0  0  0  0  0
  -32.8222  -20.0773   -2.0511 C   0  0  0  0  0  0  0  0  0  0  0  0
  -31.3780  -16.4516   -2.0159 N   0  0  0  0  0  0  0  0  0  0  0  0
  2  7  1  0
  2 11  1  0
  2 14  2  0
  3  7  1  0
  3  9  1  0
  3 12  2  0
  9 11  1  0
 11 13  2  3
  1  7  2  0
  1  8  1  0
  4  9  2  0
  4 10  1  0
  6 14  1  0
  6  8  2  0
  5 12  1  0
  5 10  2  0
 13 15  1  0
 15 16  1  0
 16 17  1  0
  6 18  1  0
 16 19  2  0
 19 20  1  0
 18 21  1  0
 15 22  2  0
 17 23  1  0
 20 24  1  0
 20 25  2  0
 22 25  1  0
 18 26  2  0
 23 27  1  0
 23 28  1  0
 27 29  1  0
 29 30  2  0
 27 31  1  0
 24 32  2  0
 31 33  1  0
 24 34  1  0
 28 35  2  0
 30 36  1  0
 31 36  2  0
 28 37  1  0
 33 37  1  0
M  END
$$$$

     RDKit          3D

 38 43  0  0  0  0  0  0  0  0999 V2000
  -28.1100  -21.1250  -11.7830 C   0  0  0  0  0  0  0  0  0  0  0  0
  -29.1380  -20.1340   -9.8150 C   0  0  0  0  0  0  0  0  0  0  0  0
  -26.8640  -19.6120  -10.1060 C   0  0  0  0  0  0  0  0  0  0  0  0
  -26.3470  -18.1740   -8.1970 C   0  0  0  0  0  0  0  0  0  0  0  0
  -24.6510  -18.7420   -9.8540 C   0  0  0  0  0  0  0  0  0  0  0  0
  -30.4600  -21.5050  -11.2460 C   0  0  0  0  0  0  0  0  0  0  0  0
  -28.0100  -20.3360  -10.6490 C   0  0  0  0  0  0  0  0  0  0  0  0
  -29.3460  -21.7100  -12.0780 C   0  0  0  0  0  0  0  0  0  0  0  0
  -27.2470  -18.9400   -8.9190 C   0  0  0  0  0  0  0  0  0  0  0  0
  -25.0380  -18.0800   -8.6770 C   0  0  0  0  0  0  0  0  0  0  0  0
  -28.6770  -19.2570   -8.7170 C   0  0  0  0  0  0  0  0  0  0  0  0
  -25.5650  -19.5150  -10.5780 C   0  0  0  0  0  0  0  0  0  0  0  0
  -29.5470  -18.7540   -7.5500 C   0  0  0  0  0  0  0  0  0  0  0  0
  -30.3630  -20.7110  -10.1010 C   0  0  0  0  0  0  0  0  0  0  0  0
  -30.2682  -17.6131   -7.7884 C   0  0  0  0  0  0  0  0  0  0  0  0
  -31.8870  -22.2541  -11.5313 C   0  0  0  0  0  0  0  0  0  0  0  0
  -31.0748  -17.2494   -6.6123 C   0  0  0  0  0  0  0  0  0  0  0  0
  -32.1997  -16.7400   -6.5513 C   0  0  0  0  0  0  0  0  0  0  0  0
  -30.5068  -16.8684   -8.5943 C   0  0  0  0  0  0  0  0  0  0  0  0
  -32.7518  -21.5174  -12.0209 O   0  0  0  0  0  0  0  0  0  0  0  0
  -33.2878  -21.2182  -13.0788 C   0  0  0  0  0  0  0  0  0  0  0  0
  -34.2580  -20.2950  -13.2615 C   0  0  0  0  0  0  0  0  0  0  0  0
  -32.8024  -21.9608  -14.1589 O   0  0  0  0  0  0  0  0  0  0  0  0
  -30.9054  -18.0619   -5.2028 C   0  0  0  0  0  0  0  0  0  0  0  0
  -29.6166  -16.8840   -9.8870 O   0  0  0  0  0  0  0  0  0  0  0  0
  -32.0002  -18.4699   -4.5000 C   0  0  0  0  0  0  0  0  0  0  0  0
  -33.1410  -17.7332   -4.6116 C   0  0  0  0  0  0  0  0  0  0  0  0
  -33.3209  -16.6554   -5.9510 C   0  0  0  0  0  0  0  0  0  0  0  0
  -34.2066  -17.9150   -3.6881 C   0  0  0  0  0  0  0  0  0  0  0  0
  -31.8777  -19.3285   -3.4363 C   0  0  0  0  0  0  0  0  0  0  0  0
  -32.2075  -15.6650   -7.8189 C   0  0  0  0  0  0  0  0  0  0  0  0
  -35.3804  -17.1342   -3.9103 O   0  0  0  0  0  0  0  0  0  0  0  0
  -33.2429  -14.7097   -7.7815 O   0  0  0  0  0  0  0  0  0  0  0  0
  -33.1034  -19.9281   -2.8609 C   0  0  0  0  0  0  0  0  0  0  0  0
  -34.2272  -19.0043   -2.8570 C   0  0  0  0  0  0  0  0  0  0  0  0
  -33.1219  -21.1912   -3.4727 O   0  0  0  0  0  0  0  0  0  0  0  0
  -31.3333  -15.8857   -8.7994 C   0  0  0  0  0  0  0  0  0  0  0  0
  -33.2024  -13.8409   -8.5461 C   0  0  0  0  0  0  0  0  0  0  0  0
  2  7  1  0
  2 11  1  0
  2 14  2  0
  3  7  1  0
  3  9  1  0
  3 12  2  0
  9 11  1  0
 11 13  2  3
  1  7  2  0
  1  8  1  0
  4  9  2  0
  4 10  1  0
  6 14  1  0
  6  8  2  0
  5 12  1  0
  5 10  2  0
 13 15  1  0
  6 16  1  0
 15 17  1  0
 17 18  2  0
 15 19  2  0
 16 20  1  0
 20 21  1  0
 21 22  1  0
 21 23  2  0
 17 24  1  0
 19 25  1  0
 24 26  1  0
 26 27  2  0
 18 28  1  0
 27 28  1  0
 27 29  1  0
 26 30  1  0
 18 31  1  0
 29 32  1  0
 31 33  1  0
 30 34  1  0
 29 35  1  0
 34 35  1  0
 34 36  1  0
 19 37  1  0
 31 37  2  0
 33 38  1  0
M  END
$$$$

     RDKit          3D

 38 43  0  0  0  0  0  0  0  0999 V2000
  -28.1100  -21.1250  -11.7830 C   0  0  0  0  0  0  0  0  0  0  0  0
  -29.1380  -20.1340   -9.8150 C   0  0  0  0  0  0  0  0  0  0  0  0
  -26.8640  -19.6120  -10.1060 C   0  0  0  0  0  0  0  0  0  0  0  0
  -26.3470  -18.1740   -8.1970 C   0  0  0  0  0  0  0  0  0  0  0  0
  -24.6510  -18.7420   -9.8540 C   0  0  0  0  0  0  0  0  0  0  0  0
  -30.4600  -21.5050  -11.2460 C   0  0  0  0  0  0  0  0  0  0  0  0
  -28.0100  -20.3360  -10.6490 C   0  0  0  0  0  0  0  0  0  0  0  0
  -29.3460  -21.7100  -12.0780 C   0  0  0  0  0  0  0  0  0  0  0  0
  -27.2470  -18.9400   -8.9190 C   0  0  0  0  0  0  0  0  0  0  0  0
  -25.0380  -18.0800   -8.6770 C   0  0  0  0  0  0  0  0  0  0  0  0
  -28.6770  -19.2570   -8.7170 C   0  0  0  0  0  0  0  0  0  0  0  0
  -25.5650  -19.5150  -10.5780 C   0  0  0  0  0  0  0  0  0  0  0  0
  -29.5470  -18.7540   -7.5500 C   0  0  0  0  0  0  0  0  0  0  0  0
  -30.3630  -20.7110  -10.1010 C   0  0  0  0  0  0  0  0  0  0  0  0
  -30.2682  -17.6131   -7.7884 C   0  0  0  0  0  0  0  0  0  0  0  0
  -31.0512  -17.2267   -6.5999 C   0  0  0  0  0  0  0  0  0  0  0  0
  -30.7450  -17.6313   -5.4512 C   0  0  0  0  0  0  0  0  0  0  0  0
  -31.8820  -22.2510  -11.5274 C   0  0  0  0  0  0  0  0  0  0  0  0
  -32.1652  -16.3316   -6.7029 C   0  0  0  0  0  0  0  0  0  0  0  0
  -32.6437  -15.8118   -7.9915 C   0  0  0  0  0  0  0  0  0  0  0  0
  -31.7576  -23.4945  -11.9074 O   0  0  0  0  0  0  0  0  0  0  0  0
  -30.9479  -17.1078   -8.9937 C   0  0  0  0  0  0  0  0  0  0  0  0
  -31.5649  -17.4409   -4.2751 C   0  0  0  0  0  0  0  0  0  0  0  0
  -33.6607  -14.9086   -8.1259 C   0  0  0  0  0  0  0  0  0  0  0  0
  -31.9607  -16.2639   -9.2079 C   0  0  0  0  0  0  0  0  0  0  0  0
  -32.7833  -22.0749  -10.4694 O   0  0  0  0  0  0  0  0  0  0  0  0
  -32.0069  -18.6691   -3.5169 N   0  0  0  0  0  0  0  0  0  0  0  0
  -31.0512  -16.4692   -3.5344 C   0  0  0  0  0  0  0  0  0  0  0  0
  -32.4772  -19.7830   -4.1047 C   0  0  0  0  0  0  0  0  0  0  0  0
  -32.7911  -20.8643   -3.3172 N   0  0  0  0  0  0  0  0  0  0  0  0
  -32.4927  -18.7010   -2.2418 C   0  0  0  0  0  0  0  0  0  0  0  0
  -34.8594  -15.2203   -8.0558 O   0  0  0  0  0  0  0  0  0  0  0  0
  -32.3439  -17.7318   -1.3135 C   0  0  0  0  0  0  0  0  0  0  0  0
  -33.3791  -13.6272   -8.3239 O   0  0  0  0  0  0  0  0  0  0  0  0
  -30.2815  -15.5478   -3.8396 O   0  0  0  0  0  0  0  0  0  0  0  0
  -32.6635  -20.1167   -1.9827 C   0  0  0  0  0  0  0  0  0  0  0  0
  -31.6094  -16.3873   -2.1389 N   0  0  0  0  0  0  0  0  0  0  0  0
  -32.2019  -17.7802   -0.2704 O   0  0  0  0  0  0  0  0  0  0  0  0
  2  7  1  0
  2 11  1  0
  2 14  2  0
  3  7  1  0
  3  9  1  0
  3 12  2  0
  9 11  1  0
 11 13  2  3
  1  7  2  0
  1  8  1  0
  4  9  2  0
  4 10  1  0
  6 14  1  0
  6  8  2  0
  5 12  1  0
  5 10  2  0
 13 15  1  0
 15 16  1  0
 16 17  1  0
  6 18  1  0
 16 19  2  0
 19 20  1  0
 18 21  1  0
 15 22  2  0
 17 23  1  0
 20 24  1  0
 20 25  2  0
 22 25  1  0
 18 26  2  0
 23 27  1  0
 23 28  1  0
 27 29  1  0
 29 30  2  0
 27 31  1  0
 24 32  2  0
 31 33  1  0
 24 34  1  0
 28 35  2  0
 30 36  1  0
 31 36  2  0
 28 37  1  0
 33 37  1  0
 33 38  2  0
M  END
$$$$

     RDKit          3D

 38 45  0  0  0  0  0  0  0  0999 V2000
  -28.1100  -21.1250  -11.7830 C   0  0  0  0  0  0  0  0  0  0  0  0
  -29.1380  -20.1340   -9.8150 C   0  0  0  0  0  0  0  0  0  0  0  0
  -26.8640  -19.6120  -10.1060 C   0  0  0  0  0  0  0  0  0  0  0  0
  -26.3470  -18.1740   -8.1970 C   0  0  0  0  0  0  0  0  0  0  0  0
  -24.6510  -18.7420   -9.8540 C   0  0  0  0  0  0  0  0  0  0  0  0
  -30.4600  -21.5050  -11.2460 C   0  0  0  0  0  0  0  0  0  0  0  0
  -28.0100  -20.3360  -10.6490 C   0  0  0  0  0  0  0  0  0  0  0  0
  -29.3460  -21.7100  -12.0780 C   0  0  0  0  0  0  0  0  0  0  0  0
  -27.2470  -18.9400   -8.9190 C   0  0  0  0  0  0  0  0  0  0  0  0
  -25.0380  -18.0800   -8.6770 C   0  0  0  0  0  0  0  0  0  0  0  0
  -28.6770  -19.2570   -8.7170 C   0  0  0  0  0  0  0  0  0  0  0  0
  -25.5650  -19.5150  -10.5780 C   0  0  0  0  0  0  0  0  0  0  0  0
  -29.5470  -18.7540   -7.5500 C   0  0  0  0  0  0  0  0  0  0  0  0
  -30.3630  -20.7110  -10.1010 C   0  0  0  0  0  0  0  0  0  0  0  0
  -31.6372  -22.1895  -11.6585 N   0  0  0  0  0  0  0  0  0  0  0  0
  -30.2571  -17.6003   -7.7868 C   0  0  0  0  0  0  0  0  0  0  0  0
  -31.0594  -17.2358   -6.6100 C   0  0  0  0  0  0  0  0  0  0  0  0
  -32.1858  -16.7350   -6.5482 C   0  0  0  0  0  0  0  0  0  0  0  0
  -30.4666  -16.8425   -8.5780 C   0  0  0  0  0  0  0  0  0  0  0  0
  -30.9060  -18.0473   -5.1963 C   0  0  0  0  0  0  0  0  0  0  0  0
  -31.6657  -23.1435  -12.5686 C   0  0  0  0  0  0  0  0  0  0  0  0
  -32.4005  -15.7956   -7.7590 C   0  0  0  0  0  0  0  0  0  0  0  0
  -33.5120  -14.9613   -7.8632 O   0  0  0  0  0  0  0  0  0  0  0  0
  -32.9398  -22.8604  -13.3392 C   0  0  0  0  0  0  0  0  0  0  0  0
  -31.8216  -17.8552   -4.2469 C   0  0  0  0  0  0  0  0  0  0  0  0
  -33.8165  -22.0303  -12.4771 C   0  0  0  0  0  0  0  0  0  0  0  0
  -31.6574  -16.8340   -3.5217 C   0  0  0  0  0  0  0  0  0  0  0  0
  -33.1616  -17.8723   -5.0009 C   0  0  0  0  0  0  0  0  0  0  0  0
  -31.9986  -19.2998   -3.5734 C   0  0  0  0  0  0  0  0  0  0  0  0
  -33.0338  -20.1334   -3.7062 C   0  0  0  0  0  0  0  0  0  0  0  0
  -34.2109  -19.6821   -4.2303 C   0  0  0  0  0  0  0  0  0  0  0  0
  -34.1455  -14.7479   -6.8800 C   0  0  0  0  0  0  0  0  0  0  0  0
  -32.6837  -21.6683  -11.3962 C   0  0  0  0  0  0  0  0  0  0  0  0
  -34.3453  -18.4376   -4.8647 C   0  0  0  0  0  0  0  0  0  0  0  0
  -31.5070  -15.9108   -8.8932 C   0  0  0  0  0  0  0  0  0  0  0  0
  -33.1813  -16.6111   -5.7093 C   0  0  0  0  0  0  0  0  0  0  0  0
  -34.3076  -15.7292   -5.8382 C   0  0  0  0  0  0  0  0  0  0  0  0
  -33.0058  -21.2558   -3.0386 O   0  0  0  0  0  0  0  0  0  0  0  0
  2  7  1  0
  2 11  1  0
  2 14  2  0
  3  7  1  0
  3  9  1  0
  3 12  2  0
  9 11  1  0
 11 13  2  3
  1  7  2  0
  1  8  1  0
  4  9  2  0
  4 10  1  0
  6 14  1  0
  6  8  2  0
  5 12  1  0
  5 10  2  0
  6 15  1  0
 13 16  1  0
 16 17  1  0
 17 18  2  0
 16 19  2  0
 17 20  1  0
 15 21  1  0
 18 22  1  0
 22 23  1  0
 21 24  1  0
 20 25  1  0
 24 26  1  0
 25 27  1  0
 25 28  1  0
 25 29  1  0
 29 30  2  0
 30 31  1  0
 23 32  1  0
 15 33  1  0
 26 33  1  0
 28 34  1  0
 31 34  2  0
 19 35  1  0
 22 35  2  0
 18 36  1  0
 28 36  2  0
 32 37  2  0
 36 37  1  0
 30 38  1  0
M  END
$$$$

     RDKit          3D

 38 43  0  0  0  0  0  0  0  0999 V2000
  -28.1100  -21.1250  -11.7830 C   0  0  0  0  0  0  0  0  0  0  0  0
  -29.1380  -20.1340   -9.8150 C   0  0  0  0  0  0  0  0  0  0  0  0
  -26.8640  -19.6120  -10.1060 C   0  0  0  0  0  0  0  0  0  0  0  0
  -26.3470  -18.1740   -8.1970 C   0  0  0  0  0  0  0  0  0  0  0  0
  -24.6510  -18.7420   -9.8540 C   0  0  0  0  0  0  0  0  0  0  0  0
  -30.4600  -21.5050  -11.2460 C   0  0  0  0  0  0  0  0  0  0  0  0
  -28.0100  -20.3360  -10.6490 C   0  0  0  0  0  0  0  0  0  0  0  0
  -29.3460  -21.7100  -12.0780 C   0  0  0  0  0  0  0  0  0  0  0  0
  -27.2470  -18.9400   -8.9190 C   0  0  0  0  0  0  0  0  0  0  0  0
  -25.0380  -18.0800   -8.6770 C   0  0  0  0  0  0  0  0  0  0  0  0
  -28.6770  -19.2570   -8.7170 C   0  0  0  0  0  0  0  0  0  0  0  0
  -25.5650  -19.5150  -10.5780 C   0  0  0  0  0  0  0  0  0  0  0  0
  -29.5470  -18.7540   -7.5500 C   0  0  0  0  0  0  0  0  0  0  0  0
  -30.3630  -20.7110  -10.1010 C   0  0  0  0  0  0  0  0  0  0  0  0
  -30.2682  -17.6131   -7.7884 C   0  0  0  0  0  0  0  0  0  0  0  0
  -31.0512  -17.2267   -6.5999 C   0  0  0  0  0  0  0  0  0  0  0  0
  -30.7450  -17.6313   -5.4512 C   0  0  0  0  0  0  0  0  0  0  0  0
  -31.8820  -22.2510  -11.5274 C   0  0  0  0  0  0  0  0  0  0  0  0
  -32.1652  -16.3316   -6.7029 C   0  0  0  0  0  0  0  0  0  0  0  0
  -32.6437  -15.8118   -7.9915 C   0  0  0  0  0  0  0  0  0  0  0  0
  -31.7576  -23.4945  -11.9074 O   0  0  0  0  0  0  0  0  0  0  0  0
  -30.9479  -17.1078   -8.9937 C   0  0  0  0  0  0  0  0  0  0  0  0
  -33.6859  -14.9298   -8.0712 O   0  0  0  0  0  0  0  0  0  0  0  0
  -31.6016  -17.5205   -4.2648 C   0  0  0  0  0  0  0  0  0  0  0  0
  -32.5933  -21.4917  -12.5412 C   0  0  0  0  0  0  0  0  0  0  0  0
  -31.9215  -16.1552   -9.1754 C   0  0  0  0  0  0  0  0  0  0  0  0
  -31.3421  -16.5735   -3.4935 C   0  0  0  0  0  0  0  0  0  0  0  0
  -34.8108  -15.0698   -7.8668 C   0  0  0  0  0  0  0  0  0  0  0  0
  -33.0201  -17.6129   -4.7284 C   0  0  0  0  0  0  0  0  0  0  0  0
  -32.3369  -21.7151  -13.8067 O   0  0  0  0  0  0  0  0  0  0  0  0
  -31.5049  -18.6929   -3.6386 O   0  0  0  0  0  0  0  0  0  0  0  0
  -33.7897  -20.9880  -12.3464 O   0  0  0  0  0  0  0  0  0  0  0  0
  -34.0086  -17.9453   -3.7750 C   0  0  0  0  0  0  0  0  0  0  0  0
  -33.3191  -16.3307   -5.4714 C   0  0  0  0  0  0  0  0  0  0  0  0
  -32.7321  -19.3109   -3.0233 C   0  0  0  0  0  0  0  0  0  0  0  0
  -35.3036  -17.5347   -4.3814 O   0  0  0  0  0  0  0  0  0  0  0  0
  -33.8352  -19.1029   -3.5387 O   0  0  0  0  0  0  0  0  0  0  0  0
  -32.4244  -20.8911   -2.9753 C   0  0  0  0  0  0  0  0  0  0  0  0
  2  7  1  0
  2 11  1  0
  2 14  2  0
  3  7  1  0
  3  9  1  0
  3 12  2  0
  9 11  1  0
 11 13  2  3
  1  7  2  0
  1  8  1  0
  4  9  2  0
  4 10  1  0
  6 14  1  0
  6  8  2  0
  5 12  1  0
  5 10  2  0
 13 15  1  0
 15 16  1  0
 16 17  1  0
  6 18  1  0
 16 19  2  0
 19 20  1  0
 18 21  1  0
 15 22  2  0
 20 23  1  0
 17 24  1  0
 18 25  1  0
 20 26  2  0
 22 26  1  0
 24 27  1  0
 23 28  1  0
 24 29  1  0
 25 30  2  0
 24 31  1  0
 25 32  1  0
 29 33  1  0
 19 34  1  0
 29 34  1  0
 31 35  1  0
 33 36  1  0
 33 37  1  0
 35 37  1  0
 35 38  1  0
M  END
$$$$

     RDKit          3D

 39 44  0  0  0  0  0  0  0  0999 V2000
  -28.1100  -21.1250  -11.7830 C   0  0  0  0  0  0  0  0  0  0  0  0
  -29.1380  -20.1340   -9.8150 C   0  0  0  0  0  0  0  0  0  0  0  0
  -26.8640  -19.6120  -10.1060 C   0  0  0  0  0  0  0  0  0  0  0  0
  -26.3470  -18.1740   -8.1970 C   0  0  0  0  0  0  0  0  0  0  0  0
  -24.6510  -18.7420   -9.8540 C   0  0  0  0  0  0  0  0  0  0  0  0
  -30.4600  -21.5050  -11.2460 C   0  0  0  0  0  0  0  0  0  0  0  0
  -28.0100  -20.3360  -10.6490 C   0  0  0  0  0  0  0  0  0  0  0  0
  -29.3460  -21.7100  -12.0780 C   0  0  0  0  0  0  0  0  0  0  0  0
  -27.2470  -18.9400   -8.9190 C   0  0  0  0  0  0  0  0  0  0  0  0
  -25.0380  -18.0800   -8.6770 C   0  0  0  0  0  0  0  0  0  0  0  0
  -28.6770  -19.2570   -8.7170 C   0  0  0  0  0  0  0  0  0  0  0  0
  -25.5650  -19.5150  -10.5780 C   0  0  0  0  0  0  0  0  0  0  0  0
  -29.5470  -18.7540   -7.5500 C   0  0  0  0  0  0  0  0  0  0  0  0
  -30.3630  -20.7110  -10.1010 C   0  0  0  0  0  0  0  0  0  0  0  0
  -30.2682  -17.6131   -7.7884 C   0  0  0  0  0  0  0  0  0  0  0  0
  -31.6351  -22.1828  -11.6616 C   0  0  0  0  0  0  0  0  0  0  0  0
  -31.0673  -17.2422   -6.6095 C   0  0  0  0  0  0  0  0  0  0  0  0
  -30.8352  -17.6300   -5.4844 C   0  0  0  0  0  0  0  0  0  0  0  0
  -31.8425  -17.5181   -4.4068 C   0  0  0  0  0  0  0  0  0  0  0  0
  -32.1307  -16.5826   -6.6226 C   0  0  0  0  0  0  0  0  0  0  0  0
  -31.6243  -18.1297   -3.1096 C   0  0  0  0  0  0  0  0  0  0  0  0
  -32.0763  -22.3605  -12.7922 O   0  0  0  0  0  0  0  0  0  0  0  0
  -30.9718  -17.4917   -2.1840 O   0  0  0  0  0  0  0  0  0  0  0  0
  -32.5117  -15.8566   -8.0492 C   0  0  0  0  0  0  0  0  0  0  0  0
  -32.8162  -21.4357  -10.9214 O   0  0  0  0  0  0  0  0  0  0  0  0
  -33.5668  -20.5980  -11.5867 C   0  0  0  0  0  0  0  0  0  0  0  0
  -33.4618  -20.7939  -13.0257 C   0  0  0  0  0  0  0  0  0  0  0  0
  -32.2308  -19.3618   -2.8070 C   0  0  0  0  0  0  0  0  0  0  0  0
  -30.8106  -17.1351   -9.0755 C   0  0  0  0  0  0  0  0  0  0  0  0
  -32.3857  -19.7243   -1.6334 O   0  0  0  0  0  0  0  0  0  0  0  0
  -32.8232  -16.7810   -4.9393 S   0  0  0  0  0  0  0  0  0  0  0  0
  -30.0303  -17.2951  -10.2594 C   0  0  0  0  0  0  0  0  0  0  0  0
  -32.9238  -21.8870  -13.5889 C   0  0  0  0  0  0  0  0  0  0  0  0
  -31.8091  -16.1898   -9.1582 C   0  0  0  0  0  0  0  0  0  0  0  0
  -34.3810  -19.8437  -13.7150 F   0  0  0  0  0  0  0  0  0  0  0  0
  -32.9910  -22.1789  -14.8053 O   0  0  0  0  0  0  0  0  0  0  0  0
  -34.3282  -19.6168  -10.9251 C   0  0  0  0  0  0  0  0  0  0  0  0
  -32.6811  -20.1712   -3.8135 N   0  0  0  0  0  0  0  0  0  0  0  0
  -31.5135  -23.5508  -10.9822 C   0  0  0  0  0  0  0  0  0  0  0  0
  2  7  1  0
  2 11  1  0
  2 14  2  0
  3  7  1  0
  3  9  1  0
  3 12  2  0
  9 11  1  0
 11 13  2  3
  1  7  2  0
  1  8  1  0
  4  9  2  0
  4 10  1  0
  6 14  1  0
  6  8  2  0
  5 12  1  0
  5 10  2  0
 13 15  1  0
  6 16  1  0
 15 17  1  0
 17 18  1  0
 18 19  2  0
 17 20  2  0
 19 21  1  0
 16 22  1  0
 21 23  2  0
 20 24  1  0
 16 25  1  0
 25 26  1  0
 26 27  2  0
 21 28  1  0
 15 29  2  0
 28 30  2  0
 19 31  1  0
 20 31  1  0
 29 32  1  0
 22 33  1  0
 27 33  1  0
 24 34  2  0
 29 34  1  0
 27 35  1  0
 33 36  2  0
 26 37  1  0
 28 38  1  0
 16 39  1  0
M  END
$$$$

     RDKit          3D

 39 45  0  0  0  0  0  0  0  0999 V2000
  -28.1100  -21.1250  -11.7830 C   0  0  0  0  0  0  0  0  0  0  0  0
  -29.1380  -20.1340   -9.8150 C   0  0  0  0  0  0  0  0  0  0  0  0
  -26.8640  -19.6120  -10.1060 C   0  0  0  0  0  0  0  0  0  0  0  0
  -26.3470  -18.1740   -8.1970 C   0  0  0  0  0  0  0  0  0  0  0  0
  -24.6510  -18.7420   -9.8540 C   0  0  0  0  0  0  0  0  0  0  0  0
  -30.4600  -21.5050  -11.2460 C   0  0  0  0  0  0  0  0  0  0  0  0
  -28.0100  -20.3360  -10.6490 C   0  0  0  0  0  0  0  0  0  0  0  0
  -29.3460  -21.7100  -12.0780 C   0  0  0  0  0  0  0  0  0  0  0  0
  -27.2470  -18.9400   -8.9190 C   0  0  0  0  0  0  0  0  0  0  0  0
  -25.0380  -18.0800   -8.6770 C   0  0  0  0  0  0  0  0  0  0  0  0
  -28.6770  -19.2570   -8.7170 C   0  0  0  0  0  0  0  0  0  0  0  0
  -25.5650  -19.5150  -10.5780 C   0  0  0  0  0  0  0  0  0  0  0  0
  -29.5470  -18.7540   -7.5500 C   0  0  0  0  0  0  0  0  0  0  0  0
  -30.3630  -20.7110  -10.1010 C   0  0  0  0  0  0  0  0  0  0  0  0
  -31.6372  -22.1895  -11.6585 N   0  0  0  0  0  0  0  0  0  0  0  0
  -30.2571  -17.6003   -7.7868 C   0  0  0  0  0  0  0  0  0  0  0  0
  -31.0594  -17.2358   -6.6100 C   0  0  0  0  0  0  0  0  0  0  0  0
  -32.1858  -16.7350   -6.5482 C   0  0  0  0  0  0  0  0  0  0  0  0
  -30.4666  -16.8425   -8.5780 C   0  0  0  0  0  0  0  0  0  0  0  0
  -30.9060  -18.0473   -5.1963 C   0  0  0  0  0  0  0  0  0  0  0  0
  -31.6657  -23.1435  -12.5686 C   0  0  0  0  0  0  0  0  0  0  0  0
  -32.4005  -15.7956   -7.7590 C   0  0  0  0  0  0  0  0  0  0  0  0
  -33.5120  -14.9613   -7.8632 O   0  0  0  0  0  0  0  0  0  0  0  0
  -32.9398  -22.8604  -13.3392 C   0  0  0  0  0  0  0  0  0  0  0  0
  -31.8216  -17.8552   -4.2469 C   0  0  0  0  0  0  0  0  0  0  0  0
  -33.8165  -22.0303  -12.4771 C   0  0  0  0  0  0  0  0  0  0  0  0
  -31.6574  -16.8340   -3.5217 C   0  0  0  0  0  0  0  0  0  0  0  0
  -33.1616  -17.8723   -5.0009 C   0  0  0  0  0  0  0  0  0  0  0  0
  -31.9986  -19.2998   -3.5734 C   0  0  0  0  0  0  0  0  0  0  0  0
  -33.0338  -20.1334   -3.7062 C   0  0  0  0  0  0  0  0  0  0  0  0
  -34.2109  -19.6821   -4.2303 C   0  0  0  0  0  0  0  0  0  0  0  0
  -34.0721  -18.5270   -4.7388 C   0  0  0  0  0  0  0  0  0  0  0  0
  -33.0051  -21.2568   -2.9788 F   0  0  0  0  0  0  0  0  0  0  0  0
  -33.9285  -20.7445  -13.0435 O   0  0  0  0  0  0  0  0  0  0  0  0
  -32.8737  -21.5553  -11.4162 C   0  0  0  0  0  0  0  0  0  0  0  0
  -32.7075  -22.0192  -14.5554 O   0  0  0  0  0  0  0  0  0  0  0  0
  -31.4047  -15.8882   -8.8662 C   0  0  0  0  0  0  0  0  0  0  0  0
  -33.1156  -16.5704   -5.6379 C   0  0  0  0  0  0  0  0  0  0  0  0
  -34.3452  -15.0622   -8.7178 C   0  0  0  0  0  0  0  0  0  0  0  0
  2  7  1  0
  2 11  1  0
  2 14  2  0
  3  7  1  0
  3  9  1  0
  3 12  2  0
  9 11  1  0
 11 13  2  3
  1  7  2  0
  1  8  1  0
  4  9  2  0
  4 10  1  0
  6 14  1  0
  6  8  2  0
  5 12  1  0
  5 10  2  0
  6 15  1  0
 13 16  1  0
 16 17  1  0
 17 18  2  0
 16 19  2  0
 17 20  1  0
 15 21  1  0
 18 22  1  0
 22 23  1  0
 21 24  1  0
 20 25  1  0
 24 26  1  0
 25 27  1  0
 25 28  1  0
 25 29  1  0
 29 30  2  0
 30 31  1  0
 28 32  1  0
 31 32  2  0
 30 33  1  0
 26 34  1  0
 15 35  1  0
 26 35  1  0
 24 36  1  0
 19 37  1  0
 22 37  2  0
 18 38  1  0
 28 38  1  0
 23 39  1  0
M  END
$$$$

     RDKit          3D

 39 45  0  0  0  0  0  0  0  0999 V2000
  -28.1100  -21.1250  -11.7830 C   0  0  0  0  0  0  0  0  0  0  0  0
  -29.1380  -20.1340   -9.8150 C   0  0  0  0  0  0  0  0  0  0  0  0
  -26.8640  -19.6120  -10.1060 C   0  0  0  0  0  0  0  0  0  0  0  0
  -26.3470  -18.1740   -8.1970 C   0  0  0  0  0  0  0  0  0  0  0  0
  -24.6510  -18.7420   -9.8540 C   0  0  0  0  0  0  0  0  0  0  0  0
  -30.4600  -21.5050  -11.2460 C   0  0  0  0  0  0  0  0  0  0  0  0
  -28.0100  -20.3360  -10.6490 C   0  0  0  0  0  0  0  0  0  0  0  0
  -29.3460  -21.7100  -12.0780 C   0  0  0  0  0  0  0  0  0  0  0  0
  -27.2470  -18.9400   -8.9190 C   0  0  0  0  0  0  0  0  0  0  0  0
  -25.0380  -18.0800   -8.6770 C   0  0  0  0  0  0  0  0  0  0  0  0
  -28.6770  -19.2570   -8.7170 C   0  0  0  0  0  0  0  0  0  0  0  0
  -25.5650  -19.5150  -10.5780 C   0  0  0  0  0  0  0  0  0  0  0  0
  -29.5470  -18.7540   -7.5500 C   0  0  0  0  0  0  0  0  0  0  0  0
  -30.3630  -20.7110  -10.1010 C   0  0  0  0  0  0  0  0  0  0  0  0
  -30.2682  -17.6131   -7.7884 C   0  0  0  0  0  0  0  0  0  0  0  0
  -31.6351  -22.1828  -11.6616 C   0  0  0  0  0  0  0  0  0  0  0  0
  -31.0673  -17.2422   -6.6095 C   0  0  0  0  0  0  0  0  0  0  0  0
  -30.8352  -17.6300   -5.4844 C   0  0  0  0  0  0  0  0  0  0  0  0
  -31.8425  -17.5181   -4.4068 C   0  0  0  0  0  0  0  0  0  0  0  0
  -32.1307  -16.5826   -6.6226 C   0  0  0  0  0  0  0  0  0  0  0  0
  -31.6243  -18.1297   -3.1096 C   0  0  0  0  0  0  0  0  0  0  0  0
  -32.0763  -22.3605  -12.7922 O   0  0  0  0  0  0  0  0  0  0  0  0
  -30.9718  -17.4917   -2.1840 O   0  0  0  0  0  0  0  0  0  0  0  0
  -32.5117  -15.8566   -8.0492 C   0  0  0  0  0  0  0  0  0  0  0  0
  -32.8162  -21.4357  -10.9214 O   0  0  0  0  0  0  0  0  0  0  0  0
  -33.5668  -20.5980  -11.5867 C   0  0  0  0  0  0  0  0  0  0  0  0
  -33.4618  -20.7939  -13.0257 C   0  0  0  0  0  0  0  0  0  0  0  0
  -32.2308  -19.3618   -2.8070 C   0  0  0  0  0  0  0  0  0  0  0  0
  -30.8106  -17.1351   -9.0755 C   0  0  0  0  0  0  0  0  0  0  0  0
  -34.4080  -19.8209  -13.7991 C   0  0  0  0  0  0  0  0  0  0  0  0
  -31.8014  -16.2069   -9.1686 C   0  0  0  0  0  0  0  0  0  0  0  0
  -35.1571  -18.8089  -13.2363 C   0  0  0  0  0  0  0  0  0  0  0  0
  -32.6127  -20.3002   -3.8189 O   0  0  0  0  0  0  0  0  0  0  0  0
  -34.4748  -19.6475  -11.1379 C   0  0  0  0  0  0  0  0  0  0  0  0
  -32.7557  -21.6610  -13.7187 C   0  0  0  0  0  0  0  0  0  0  0  0
  -35.2008  -18.7480  -11.7897 C   0  0  0  0  0  0  0  0  0  0  0  0
  -32.4471  -19.8316   -1.6173 N   0  0  0  0  0  0  0  0  0  0  0  0
  -32.6414  -21.9273  -14.9290 O   0  0  0  0  0  0  0  0  0  0  0  0
  -32.8648  -16.2338   -5.4308 S   0  0  0  0  0  0  0  0  0  0  0  0
  2  7  1  0
  2 11  1  0
  2 14  2  0
  3  7  1  0
  3  9  1  0
  3 12  2  0
  9 11  1  0
 11 13  2  3
  1  7  2  0
  1  8  1  0
  4  9  2  0
  4 10  1  0
  6 14  1  0
  6  8  2  0
  5 12  1  0
  5 10  2  0
 13 15  1  0
  6 16  1  0
 15 17  1  0
 17 18  1  0
 18 19  2  0
 17 20  2  0
 19 21  1  0
 16 22  1  0
 21 23  2  0
 20 24  1  0
 16 25  1  0
 25 26  1  0
 26 27  2  0
 21 28  1  0
 15 29  2  0
 27 30  1  0
 24 31  2  0
 29 31  1  0
 30 32  2  0
 28 33  2  0
 26 34  1  0
 22 35  1  0
 27 35  1  0
 32 36  1  0
 34 36  2  0
 28 37  1  0
 35 38  2  0
 19 39  1  0
 20 39  1  0
M  END
$$$$

     RDKit          3D

 39 44  0  0  0  0  0  0  0  0999 V2000
  -28.1100  -21.1250  -11.7830 C   0  0  0  0  0  0  0  0  0  0  0  0
  -29.1380  -20.1340   -9.8150 C   0  0  0  0  0  0  0  0  0  0  0  0
  -26.8640  -19.6120  -10.1060 C   0  0  0  0  0  0  0  0  0  0  0  0
  -26.3470  -18.1740   -8.1970 C   0  0  0  0  0  0  0  0  0  0  0  0
  -24.6510  -18.7420   -9.8540 C   0  0  0  0  0  0  0  0  0  0  0  0
  -30.4600  -21.5050  -11.2460 C   0  0  0  0  0  0  0  0  0  0  0  0
  -28.0100  -20.3360  -10.6490 C   0  0  0  0  0  0  0  0  0  0  0  0
  -29.3460  -21.7100  -12.0780 C   0  0  0  0  0  0  0  0  0  0  0  0
  -27.2470  -18.9400   -8.9190 C   0  0  0  0  0  0  0  0  0  0  0  0
  -25.0380  -18.0800   -8.6770 C   0  0  0  0  0  0  0  0  0  0  0  0
  -28.6770  -19.2570   -8.7170 C   0  0  0  0  0  0  0  0  0  0  0  0
  -25.5650  -19.5150  -10.5780 C   0  0  0  0  0  0  0  0  0  0  0  0
  -29.5470  -18.7540   -7.5500 C   0  0  0  0  0  0  0  0  0  0  0  0
  -30.3630  -20.7110  -10.1010 C   0  0  0  0  0  0  0  0  0  0  0  0
  -30.2682  -17.6131   -7.7884 C   0  0  0  0  0  0  0  0  0  0  0  0
  -31.6351  -22.1828  -11.6616 C   0  0  0  0  0  0  0  0  0  0  0  0
  -31.0673  -17.2422   -6.6095 C   0  0  0  0  0  0  0  0  0  0  0  0
  -30.8352  -17.6300   -5.4844 C   0  0  0  0  0  0  0  0  0  0  0  0
  -31.8425  -17.5181   -4.4068 C   0  0  0  0  0  0  0  0  0  0  0  0
  -32.1307  -16.5826   -6.6226 C   0  0  0  0  0  0  0  0  0  0  0  0
  -31.6243  -18.1297   -3.1096 C   0  0  0  0  0  0  0  0  0  0  0  0
  -32.0763  -22.3605  -12.7922 O   0  0  0  0  0  0  0  0  0  0  0  0
  -30.9718  -17.4917   -2.1840 O   0  0  0  0  0  0  0  0  0  0  0  0
  -32.5117  -15.8566   -8.0492 C   0  0  0  0  0  0  0  0  0  0  0  0
  -32.8162  -21.4357  -10.9214 O   0  0  0  0  0  0  0  0  0  0  0  0
  -33.5668  -20.5980  -11.5867 C   0  0  0  0  0  0  0  0  0  0  0  0
  -33.4618  -20.7939  -13.0257 C   0  0  0  0  0  0  0  0  0  0  0  0
  -32.2308  -19.3618   -2.8070 C   0  0  0  0  0  0  0  0  0  0  0  0
  -30.8106  -17.1351   -9.0755 C   0  0  0  0  0  0  0  0  0  0  0  0
  -32.3857  -19.7243   -1.6334 O   0  0  0  0  0  0  0  0  0  0  0  0
  -32.8232  -16.7810   -4.9393 S   0  0  0  0  0  0  0  0  0  0  0  0
  -30.0303  -17.2951  -10.2594 C   0  0  0  0  0  0  0  0  0  0  0  0
  -32.9238  -21.8870  -13.5889 C   0  0  0  0  0  0  0  0  0  0  0  0
  -31.8078  -16.1593   -9.1001 C   0  0  0  0  0  0  0  0  0  0  0  0
  -34.3810  -19.8437  -13.7151 F   0  0  0  0  0  0  0  0  0  0  0  0
  -32.9909  -22.1789  -14.8053 O   0  0  0  0  0  0  0  0  0  0  0  0
  -31.5537  -23.5402  -10.9690 F   0  0  0  0  0  0  0  0  0  0  0  0
  -34.0199  -19.3524  -11.1334 C   0  0  0  0  0  0  0  0  0  0  0  0
  -32.5352  -20.2304   -3.8247 N   0  0  0  0  0  0  0  0  0  0  0  0
  2  7  1  0
  2 11  1  0
  2 14  2  0
  3  7  1  0
  3  9  1  0
  3 12  2  0
  9 11  1  0
 11 13  2  3
  1  7  2  0
  1  8  1  0
  4  9  2  0
  4 10  1  0
  6 14  1  0
  6  8  2  0
  5 12  1  0
  5 10  2  0
 13 15  1  0
  6 16  1  0
 15 17  1  0
 17 18  1  0
 18 19  2  0
 17 20  2  0
 19 21  1  0
 16 22  1  0
 21 23  2  0
 20 24  1  0
 16 25  1  0
 25 26  1  0
 26 27  2  0
 21 28  1  0
 15 29  2  0
 28 30  2  0
 19 31  1  0
 20 31  1  0
 29 32  1  0
 22 33  1  0
 27 33  1  0
 24 34  2  0
 29 34  1  0
 27 35  1  0
 33 36  2  0
 16 37  1  0
 26 38  1  0
 28 39  1  0
M  END
$$$$

     RDKit          3D

 39 46  0  0  0  0  0  0  0  0999 V2000
  -28.1100  -21.1250  -11.7830 C   0  0  0  0  0  0  0  0  0  0  0  0
  -29.1380  -20.1340   -9.8150 C   0  0  0  0  0  0  0  0  0  0  0  0
  -26.8640  -19.6120  -10.1060 C   0  0  0  0  0  0  0  0  0  0  0  0
  -26.3470  -18.1740   -8.1970 C   0  0  0  0  0  0  0  0  0  0  0  0
  -24.6510  -18.7420   -9.8540 C   0  0  0  0  0  0  0  0  0  0  0  0
  -30.4600  -21.5050  -11.2460 C   0  0  0  0  0  0  0  0  0  0  0  0
  -28.0100  -20.3360  -10.6490 C   0  0  0  0  0  0  0  0  0  0  0  0
  -29.3460  -21.7100  -12.0780 C   0  0  0  0  0  0  0  0  0  0  0  0
  -27.2470  -18.9400   -8.9190 C   0  0  0  0  0  0  0  0  0  0  0  0
  -25.0380  -18.0800   -8.6770 C   0  0  0  0  0  0  0  0  0  0  0  0
  -28.6770  -19.2570   -8.7170 C   0  0  0  0  0  0  0  0  0  0  0  0
  -25.5650  -19.5150  -10.5780 C   0  0  0  0  0  0  0  0  0  0  0  0
  -29.5470  -18.7540   -7.5500 C   0  0  0  0  0  0  0  0  0  0  0  0
  -30.3630  -20.7110  -10.1010 C   0  0  0  0  0  0  0  0  0  0  0  0
  -31.6372  -22.1895  -11.6585 N   0  0  0  0  0  0  0  0  0  0  0  0
  -30.2571  -17.6003   -7.7868 C   0  0  0  0  0  0  0  0  0  0  0  0
  -31.0594  -17.2358   -6.6100 C   0  0  0  0  0  0  0  0  0  0  0  0
  -32.1858  -16.7350   -6.5482 C   0  0  0  0  0  0  0  0  0  0  0  0
  -30.4666  -16.8425   -8.5780 C   0  0  0  0  0  0  0  0  0  0  0  0
  -30.9060  -18.0473   -5.1963 C   0  0  0  0  0  0  0  0  0  0  0  0
  -31.6657  -23.1435  -12.5686 C   0  0  0  0  0  0  0  0  0  0  0  0
  -32.4005  -15.7956   -7.7590 C   0  0  0  0  0  0  0  0  0  0  0  0
  -33.5120  -14.9613   -7.8632 O   0  0  0  0  0  0  0  0  0  0  0  0
  -32.9398  -22.8604  -13.3392 C   0  0  0  0  0  0  0  0  0  0  0  0
  -31.8216  -17.8552   -4.2469 C   0  0  0  0  0  0  0  0  0  0  0  0
  -33.8165  -22.0303  -12.4771 C   0  0  0  0  0  0  0  0  0  0  0  0
  -31.6574  -16.8340   -3.5217 C   0  0  0  0  0  0  0  0  0  0  0  0
  -33.1616  -17.8723   -5.0009 C   0  0  0  0  0  0  0  0  0  0  0  0
  -31.9986  -19.2998   -3.5734 C   0  0  0  0  0  0  0  0  0  0  0  0
  -33.0338  -20.1334   -3.7062 C   0  0  0  0  0  0  0  0  0  0  0  0
  -34.2109  -19.6821   -4.2303 C   0  0  0  0  0  0  0  0  0  0  0  0
  -34.1455  -14.7479   -6.8800 C   0  0  0  0  0  0  0  0  0  0  0  0
  -32.9857  -21.3229   -3.0247 O   0  0  0  0  0  0  0  0  0  0  0  0
  -34.1675  -18.4753   -4.8753 C   0  0  0  0  0  0  0  0  0  0  0  0
  -33.2272  -16.6312   -5.7481 C   0  0  0  0  0  0  0  0  0  0  0  0
  -31.4702  -15.9123   -8.8613 C   0  0  0  0  0  0  0  0  0  0  0  0
  -34.3643  -15.7880   -5.7799 C   0  0  0  0  0  0  0  0  0  0  0  0
  -32.6827  -21.6749  -11.3937 C   0  0  0  0  0  0  0  0  0  0  0  0
  -34.5969  -13.5335   -6.8039 O   0  0  0  0  0  0  0  0  0  0  0  0
  2  7  1  0
  2 11  1  0
  2 14  2  0
  3  7  1  0
  3  9  1  0
  3 12  2  0
  9 11  1  0
 11 13  2  3
  1  7  2  0
  1  8  1  0
  4  9  2  0
  4 10  1  0
  6 14  1  0
  6  8  2  0
  5 12  1  0
  5 10  2  0
  6 15  1  0
 13 16  1  0
 16 17  1  0
 17 18  2  0
 16 19  2  0
 17 20  1  0
 15 21  1  0
 18 22  1  0
 22 23  1  0
 21 24  1  0
 20 25  1  0
 24 26  1  0
 25 27  1  0
 25 28  1  0
 25 29  1  0
 29 30  2  0
 30 31  1  0
 23 32  1  0
 30 33  1  0
 28 34  1  0
 31 34  2  0
 18 35  1  0
 28 35  2  0
 19 36  1  0
 22 36  2  0
 32 37  1  0
 35 37  1  0
 15 38  1  0
 26 38  1  0
 32 39  2  0
M  END
$$$$

     RDKit          3D

 39 44  0  0  0  0  0  0  0  0999 V2000
  -28.1100  -21.1250  -11.7830 C   0  0  0  0  0  0  0  0  0  0  0  0
  -29.1380  -20.1340   -9.8150 C   0  0  0  0  0  0  0  0  0  0  0  0
  -26.8640  -19.6120  -10.1060 C   0  0  0  0  0  0  0  0  0  0  0  0
  -26.3470  -18.1740   -8.1970 C   0  0  0  0  0  0  0  0  0  0  0  0
  -24.6510  -18.7420   -9.8540 C   0  0  0  0  0  0  0  0  0  0  0  0
  -30.4600  -21.5050  -11.2460 C   0  0  0  0  0  0  0  0  0  0  0  0
  -28.0100  -20.3360  -10.6490 C   0  0  0  0  0  0  0  0  0  0  0  0
  -29.3460  -21.7100  -12.0780 C   0  0  0  0  0  0  0  0  0  0  0  0
  -27.2470  -18.9400   -8.9190 C   0  0  0  0  0  0  0  0  0  0  0  0
  -25.0380  -18.0800   -8.6770 C   0  0  0  0  0  0  0  0  0  0  0  0
  -28.6770  -19.2570   -8.7170 C   0  0  0  0  0  0  0  0  0  0  0  0
  -25.5650  -19.5150  -10.5780 C   0  0  0  0  0  0  0  0  0  0  0  0
  -29.5470  -18.7540   -7.5500 C   0  0  0  0  0  0  0  0  0  0  0  0
  -30.3630  -20.7110  -10.1010 C   0  0  0  0  0  0  0  0  0  0  0  0
  -31.6372  -22.1895  -11.6585 N   0  0  0  0  0  0  0  0  0  0  0  0
  -30.2571  -17.6003   -7.7868 C   0  0  0  0  0  0  0  0  0  0  0  0
  -31.0594  -17.2358   -6.6100 C   0  0  0  0  0  0  0  0  0  0  0  0
  -32.1858  -16.7350   -6.5482 C   0  0  0  0  0  0  0  0  0  0  0  0
  -30.4666  -16.8425   -8.5780 C   0  0  0  0  0  0  0  0  0  0  0  0
  -30.9060  -18.0473   -5.1963 C   0  0  0  0  0  0  0  0  0  0  0  0
  -31.6657  -23.1435  -12.5686 C   0  0  0  0  0  0  0  0  0  0  0  0
  -31.7940  -17.7755   -4.2400 C   0  0  0  0  0  0  0  0  0  0  0  0
  -33.2340  -16.6169   -5.7193 C   0  0  0  0  0  0  0  0  0  0  0  0
  -32.9392  -22.8589  -13.3401 C   0  0  0  0  0  0  0  0  0  0  0  0
  -33.1180  -17.3572   -4.4696 C   0  0  0  0  0  0  0  0  0  0  0  0
  -29.5608  -16.7548   -9.7991 C   0  0  0  0  0  0  0  0  0  0  0  0
  -33.8157  -22.0270  -12.4784 C   0  0  0  0  0  0  0  0  0  0  0  0
  -32.4387  -15.9300   -7.9545 C   0  0  0  0  0  0  0  0  0  0  0  0
  -33.5720  -15.1251   -8.0231 O   0  0  0  0  0  0  0  0  0  0  0  0
  -31.0824  -16.7785   -3.3289 C   0  0  0  0  0  0  0  0  0  0  0  0
  -32.2226  -18.8995   -3.2967 N   0  0  0  0  0  0  0  0  0  0  0  0
  -32.6881  -21.6724  -11.3946 C   0  0  0  0  0  0  0  0  0  0  0  0
  -31.5698  -16.4874   -2.1672 O   0  0  0  0  0  0  0  0  0  0  0  0
  -32.6252  -20.0926   -3.9157 C   0  0  0  0  0  0  0  0  0  0  0  0
  -31.4586  -15.8637   -8.8407 C   0  0  0  0  0  0  0  0  0  0  0  0
  -33.5742  -13.9813   -7.7811 C   0  0  0  0  0  0  0  0  0  0  0  0
  -32.8394  -20.0748   -5.1477 O   0  0  0  0  0  0  0  0  0  0  0  0
  -32.6809  -21.0900   -3.1620 N   0  0  0  0  0  0  0  0  0  0  0  0
  -30.0208  -16.2342   -3.6895 O   0  0  0  0  0  0  0  0  0  0  0  0
  2  7  1  0
  2 11  1  0
  2 14  2  0
  3  7  1  0
  3  9  1  0
  3 12  2  0
  9 11  1  0
 11 13  2  3
  1  7  2  0
  1  8  1  0
  4  9  2  0
  4 10  1  0
  6 14  1  0
  6  8  2  0
  5 12  1  0
  5 10  2  0
  6 15  1  0
 13 16  1  0
 16 17  1  0
 17 18  2  0
 16 19  2  0
 17 20  1  0
 15 21  1  0
 20 22  1  0
 18 23  1  0
 21 24  1  0
 22 25  1  0
 23 25  1  0
 19 26  1  0
 24 27  1  0
 18 28  1  0
 28 29  1  0
 22 30  1  0
 22 31  1  0
 15 32  1  0
 27 32  1  0
 30 33  2  0
 31 34  1  0
 19 35  1  0
 28 35  2  0
 29 36  1  0
 34 37  2  0
 34 38  1  0
 30 39  1  0
M  END
$$$$

     RDKit          3D

 40 45  0  0  0  0  0  0  0  0999 V2000
  -28.1100  -21.1250  -11.7830 C   0  0  0  0  0  0  0  0  0  0  0  0
  -29.1380  -20.1340   -9.8150 C   0  0  0  0  0  0  0  0  0  0  0  0
  -26.8640  -19.6120  -10.1060 C   0  0  0  0  0  0  0  0  0  0  0  0
  -26.3470  -18.1740   -8.1970 C   0  0  0  0  0  0  0  0  0  0  0  0
  -24.6510  -18.7420   -9.8540 C   0  0  0  0  0  0  0  0  0  0  0  0
  -30.4600  -21.5050  -11.2460 C   0  0  0  0  0  0  0  0  0  0  0  0
  -28.0100  -20.3360  -10.6490 C   0  0  0  0  0  0  0  0  0  0  0  0
  -29.3460  -21.7100  -12.0780 C   0  0  0  0  0  0  0  0  0  0  0  0
  -27.2470  -18.9400   -8.9190 C   0  0  0  0  0  0  0  0  0  0  0  0
  -25.0380  -18.0800   -8.6770 C   0  0  0  0  0  0  0  0  0  0  0  0
  -28.6770  -19.2570   -8.7170 C   0  0  0  0  0  0  0  0  0  0  0  0
  -25.5650  -19.5150  -10.5780 C   0  0  0  0  0  0  0  0  0  0  0  0
  -29.5470  -18.7540   -7.5500 C   0  0  0  0  0  0  0  0  0  0  0  0
  -30.3630  -20.7110  -10.1010 C   0  0  0  0  0  0  0  0  0  0  0  0
  -31.6372  -22.1895  -11.6585 N   0  0  0  0  0  0  0  0  0  0  0  0
  -31.6596  -23.1099  -12.5883 C   0  0  0  0  0  0  0  0  0  0  0  0
  -30.2377  -17.5894   -7.7821 C   0  0  0  0  0  0  0  0  0  0  0  0
  -31.0309  -17.2219   -6.5960 C   0  0  0  0  0  0  0  0  0  0  0  0
  -32.1239  -22.5265  -13.8248 C   0  0  0  0  0  0  0  0  0  0  0  0
  -30.7865  -17.6153   -5.4577 C   0  0  0  0  0  0  0  0  0  0  0  0
  -31.6712  -17.3381   -4.2831 C   0  0  0  0  0  0  0  0  0  0  0  0
  -32.1182  -16.2558   -6.7005 C   0  0  0  0  0  0  0  0  0  0  0  0
  -32.8659  -21.3002  -13.6645 C   0  0  0  0  0  0  0  0  0  0  0  0
  -32.8265  -16.6068   -4.5105 C   0  0  0  0  0  0  0  0  0  0  0  0
  -32.3400  -15.6944   -8.0389 C   0  0  0  0  0  0  0  0  0  0  0  0
  -33.0348  -16.0349   -5.7178 C   0  0  0  0  0  0  0  0  0  0  0  0
  -31.4385  -18.0389   -2.8810 C   0  0  0  0  0  0  0  0  0  0  0  0
  -30.6722  -17.2937   -2.1266 O   0  0  0  0  0  0  0  0  0  0  0  0
  -33.3178  -21.1089  -12.3234 C   0  0  0  0  0  0  0  0  0  0  0  0
  -30.4527  -16.9033   -9.0093 C   0  0  0  0  0  0  0  0  0  0  0  0
  -32.7619  -21.4985  -11.3621 C   0  0  0  0  0  0  0  0  0  0  0  0
  -29.5799  -17.1263  -10.0896 C   0  0  0  0  0  0  0  0  0  0  0  0
  -33.3242  -14.6945   -8.2340 C   0  0  0  0  0  0  0  0  0  0  0  0
  -31.8869  -19.2494   -2.5772 C   0  0  0  0  0  0  0  0  0  0  0  0
  -31.8239  -19.4918   -1.2726 O   0  0  0  0  0  0  0  0  0  0  0  0
  -33.0458  -20.5093  -14.7521 O   0  0  0  0  0  0  0  0  0  0  0  0
  -32.5074  -20.2489   -3.4466 C   0  0  0  0  0  0  0  0  0  0  0  0
  -32.9194  -21.2427   -3.2422 O   0  0  0  0  0  0  0  0  0  0  0  0
  -31.4286  -15.9150   -9.1682 C   0  0  0  0  0  0  0  0  0  0  0  0
  -32.6660  -19.6798   -4.7554 O   0  0  0  0  0  0  0  0  0  0  0  0
  2  7  1  0
  2 11  1  0
  2 14  2  0
  3  7  1  0
  3  9  1  0
  3 12  2  0
  9 11  1  0
 11 13  2  3
  1  7  2  0
  1  8  1  0
  4  9  2  0
  4 10  1  0
  6 14  1  0
  6  8  2  0
  5 12  1  0
  5 10  2  0
  6 15  1  0
 15 16  1  0
 13 17  1  0
 17 18  1  0
 16 19  1  0
 18 20  2  0
 20 21  1  0
 18 22  1  0
 19 23  1  0
 21 24  2  0
 22 25  1  0
 22 26  2  0
 24 26  1  0
 21 27  1  0
 27 28  1  0
 23 29  1  0
 17 30  2  0
 15 31  1  0
 29 31  1  0
 30 32  1  0
 25 33  1  0
 27 34  2  3
 34 35  1  0
 23 36  2  0
 34 37  1  0
 37 38  2  0
 25 39  2  0
 30 39  1  0
 37 40  1  0
M  END
$$$$

     RDKit          3D

 41 47  0  0  0  0  0  0  0  0999 V2000
  -28.1100  -21.1250  -11.7830 C   0  0  0  0  0  0  0  0  0  0  0  0
  -29.1380  -20.1340   -9.8150 C   0  0  0  0  0  0  0  0  0  0  0  0
  -26.8640  -19.6120  -10.1060 C   0  0  0  0  0  0  0  0  0  0  0  0
  -26.3470  -18.1740   -8.1970 C   0  0  0  0  0  0  0  0  0  0  0  0
  -24.6510  -18.7420   -9.8540 C   0  0  0  0  0  0  0  0  0  0  0  0
  -30.4600  -21.5050  -11.2460 C   0  0  0  0  0  0  0  0  0  0  0  0
  -28.0100  -20.3360  -10.6490 C   0  0  0  0  0  0  0  0  0  0  0  0
  -29.3460  -21.7100  -12.0780 C   0  0  0  0  0  0  0  0  0  0  0  0
  -27.2470  -18.9400   -8.9190 C   0  0  0  0  0  0  0  0  0  0  0  0
  -25.0380  -18.0800   -8.6770 C   0  0  0  0  0  0  0  0  0  0  0  0
  -28.6770  -19.2570   -8.7170 C   0  0  0  0  0  0  0  0  0  0  0  0
  -25.5650  -19.5150  -10.5780 C   0  0  0  0  0  0  0  0  0  0  0  0
  -29.5470  -18.7540   -7.5500 C   0  0  0  0  0  0  0  0  0  0  0  0
  -30.3630  -20.7110  -10.1010 C   0  0  0  0  0  0  0  0  0  0  0  0
  -31.6372  -22.1895  -11.6585 N   0  0  0  0  0  0  0  0  0  0  0  0
  -30.2571  -17.6003   -7.7868 C   0  0  0  0  0  0  0  0  0  0  0  0
  -31.0594  -17.2358   -6.6100 C   0  0  0  0  0  0  0  0  0  0  0  0
  -32.1858  -16.7350   -6.5482 C   0  0  0  0  0  0  0  0  0  0  0  0
  -30.4666  -16.8425   -8.5780 C   0  0  0  0  0  0  0  0  0  0  0  0
  -30.9060  -18.0473   -5.1963 C   0  0  0  0  0  0  0  0  0  0  0  0
  -31.6657  -23.1435  -12.5686 C   0  0  0  0  0  0  0  0  0  0  0  0
  -31.7940  -17.7755   -4.2400 C   0  0  0  0  0  0  0  0  0  0  0  0
  -33.2340  -16.6169   -5.7193 C   0  0  0  0  0  0  0  0  0  0  0  0
  -32.9392  -22.8589  -13.3401 C   0  0  0  0  0  0  0  0  0  0  0  0
  -33.5297  -21.5329  -13.0725 C   0  0  0  0  0  0  0  0  0  0  0  0
  -33.0394  -17.1480   -4.4357 C   0  0  0  0  0  0  0  0  0  0  0  0
  -33.4393  -16.3526   -3.2654 C   0  0  0  0  0  0  0  0  0  0  0  0
  -33.1715  -21.2782  -11.6249 C   0  0  0  0  0  0  0  0  0  0  0  0
  -30.9109  -17.1660   -3.2103 C   0  0  0  0  0  0  0  0  0  0  0  0
  -32.2270  -19.0340   -3.7788 C   0  0  0  0  0  0  0  0  0  0  0  0
  -32.1900  -15.9111   -8.0081 C   0  0  0  0  0  0  0  0  0  0  0  0
  -31.4944  -15.9650   -8.8780 C   0  0  0  0  0  0  0  0  0  0  0  0
  -31.6280  -16.2588   -2.2232 C   0  0  0  0  0  0  0  0  0  0  0  0
  -33.0213  -20.4415  -13.8753 C   0  0  0  0  0  0  0  0  0  0  0  0
  -32.4616  -20.6915  -15.0746 O   0  0  0  0  0  0  0  0  0  0  0  0
  -32.7498  -19.8277   -3.3140 C   0  0  0  0  0  0  0  0  0  0  0  0
  -32.7017  -21.0592   -3.5962 O   0  0  0  0  0  0  0  0  0  0  0  0
  -32.8320  -15.9915   -2.3043 C   0  0  0  0  0  0  0  0  0  0  0  0
  -30.9171  -15.5631   -1.2805 O   0  0  0  0  0  0  0  0  0  0  0  0
  -33.8262  -19.5301   -2.5441 O   0  0  0  0  0  0  0  0  0  0  0  0
  -33.1060  -19.1616  -13.5888 O   0  0  0  0  0  0  0  0  0  0  0  0
  2  7  1  0
  2 11  1  0
  2 14  2  0
  3  7  1  0
  3  9  1  0
  3 12  2  0
  9 11  1  0
 11 13  2  3
  1  7  2  0
  1  8  1  0
  4  9  2  0
  4 10  1  0
  6 14  1  0
  6  8  2  0
  5 12  1  0
  5 10  2  0
  6 15  1  0
 13 16  1  0
 16 17  1  0
 17 18  2  0
 16 19  2  0
 17 20  1  0
 15 21  1  0
 20 22  1  0
 18 23  1  0
 21 24  1  0
 24 25  1  0
 22 26  1  0
 23 26  1  0
 26 27  1  0
 15 28  1  0
 25 28  1  0
 22 29  1  0
 22 30  1  0
 18 31  1  0
 19 32  1  0
 31 32  2  0
 29 33  1  0
 25 34  1  0
 34 35  2  0
 30 36  1  0
 36 37  2  0
 27 38  2  0
 33 38  1  0
 33 39  2  0
 36 40  1  0
 34 41  1  0
M  END
$$$$

     RDKit          3D

 41 47  0  0  0  0  0  0  0  0999 V2000
  -28.1100  -21.1250  -11.7830 C   0  0  0  0  0  0  0  0  0  0  0  0
  -29.1380  -20.1340   -9.8150 C   0  0  0  0  0  0  0  0  0  0  0  0
  -26.8640  -19.6120  -10.1060 C   0  0  0  0  0  0  0  0  0  0  0  0
  -26.3470  -18.1740   -8.1970 C   0  0  0  0  0  0  0  0  0  0  0  0
  -24.6510  -18.7420   -9.8540 C   0  0  0  0  0  0  0  0  0  0  0  0
  -30.4600  -21.5050  -11.2460 C   0  0  0  0  0  0  0  0  0  0  0  0
  -28.0100  -20.3360  -10.6490 C   0  0  0  0  0  0  0  0  0  0  0  0
  -29.3460  -21.7100  -12.0780 C   0  0  0  0  0  0  0  0  0  0  0  0
  -27.2470  -18.9400   -8.9190 C   0  0  0  0  0  0  0  0  0  0  0  0
  -25.0380  -18.0800   -8.6770 C   0  0  0  0  0  0  0  0  0  0  0  0
  -28.6770  -19.2570   -8.7170 C   0  0  0  0  0  0  0  0  0  0  0  0
  -25.5650  -19.5150  -10.5780 C   0  0  0  0  0  0  0  0  0  0  0  0
  -29.5470  -18.7540   -7.5500 C   0  0  0  0  0  0  0  0  0  0  0  0
  -30.3630  -20.7110  -10.1010 C   0  0  0  0  0  0  0  0  0  0  0  0
  -30.2682  -17.6131   -7.7884 C   0  0  0  0  0  0  0  0  0  0  0  0
  -31.6351  -22.1828  -11.6616 C   0  0  0  0  0  0  0  0  0  0  0  0
  -31.0673  -17.2422   -6.6095 C   0  0  0  0  0  0  0  0  0  0  0  0
  -30.8352  -17.6300   -5.4844 C   0  0  0  0  0  0  0  0  0  0  0  0
  -31.8425  -17.5181   -4.4068 C   0  0  0  0  0  0  0  0  0  0  0  0
  -32.1307  -16.5826   -6.6226 C   0  0  0  0  0  0  0  0  0  0  0  0
  -31.6243  -18.1297   -3.1096 C   0  0  0  0  0  0  0  0  0  0  0  0
  -32.0763  -22.3605  -12.7922 O   0  0  0  0  0  0  0  0  0  0  0  0
  -30.9718  -17.4917   -2.1840 O   0  0  0  0  0  0  0  0  0  0  0  0
  -32.5117  -15.8566   -8.0492 C   0  0  0  0  0  0  0  0  0  0  0  0
  -32.8162  -21.4357  -10.9214 O   0  0  0  0  0  0  0  0  0  0  0  0
  -33.5668  -20.5980  -11.5867 C   0  0  0  0  0  0  0  0  0  0  0  0
  -33.4618  -20.7939  -13.0257 C   0  0  0  0  0  0  0  0  0  0  0  0
  -32.2308  -19.3618   -2.8070 C   0  0  0  0  0  0  0  0  0  0  0  0
  -30.8106  -17.1351   -9.0755 C   0  0  0  0  0  0  0  0  0  0  0  0
  -34.4080  -19.8209  -13.7991 C   0  0  0  0  0  0  0  0  0  0  0  0
  -31.8014  -16.2069   -9.1686 C   0  0  0  0  0  0  0  0  0  0  0  0
  -35.1571  -18.8089  -13.2363 C   0  0  0  0  0  0  0  0  0  0  0  0
  -32.6127  -20.3002   -3.8189 O   0  0  0  0  0  0  0  0  0  0  0  0
  -34.4748  -19.6475  -11.1379 C   0  0  0  0  0  0  0  0  0  0  0  0
  -32.7557  -21.6610  -13.7187 C   0  0  0  0  0  0  0  0  0  0  0  0
  -32.6524  -21.8925  -14.9177 O   0  0  0  0  0  0  0  0  0  0  0  0
  -32.5835  -19.7832   -1.6636 O   0  0  0  0  0  0  0  0  0  0  0  0
  -32.9098  -16.6828   -4.7926 C   0  0  0  0  0  0  0  0  0  0  0  0
  -33.8328  -16.3887   -3.6291 C   0  0  0  0  0  0  0  0  0  0  0  0
  -33.1779  -16.1735   -5.8979 N   0  0  0  0  0  0  0  0  0  0  0  0
  -35.2027  -18.7546  -11.7800 C   0  0  0  0  0  0  0  0  0  0  0  0
  2  7  1  0
  2 11  1  0
  2 14  2  0
  3  7  1  0
  3  9  1  0
  3 12  2  0
  9 11  1  0
 11 13  2  3
  1  7  2  0
  1  8  1  0
  4  9  2  0
  4 10  1  0
  6 14  1  0
  6  8  2  0
  5 12  1  0
  5 10  2  0
 13 15  1  0
  6 16  1  0
 15 17  1  0
 17 18  1  0
 18 19  2  0
 17 20  2  0
 19 21  1  0
 16 22  1  0
 21 23  2  0
 20 24  1  0
 16 25  1  0
 25 26  1  0
 26 27  2  0
 21 28  1  0
 15 29  2  0
 27 30  1  0
 24 31  2  0
 29 31  1  0
 30 32  2  0
 28 33  2  0
 26 34  1  0
 22 35  1  0
 27 35  1  0
 35 36  2  0
 28 37  1  0
 19 38  1  0
 38 39  1  0
 20 40  1  0
 38 40  2  0
 32 41  1  0
 34 41  2  0
M  END
$$$$

     RDKit          3D

 42 47  0  0  0  0  0  0  0  0999 V2000
  -28.1100  -21.1250  -11.7830 C   0  0  0  0  0  0  0  0  0  0  0  0
  -29.1380  -20.1340   -9.8150 C   0  0  0  0  0  0  0  0  0  0  0  0
  -26.8640  -19.6120  -10.1060 C   0  0  0  0  0  0  0  0  0  0  0  0
  -26.3470  -18.1740   -8.1970 C   0  0  0  0  0  0  0  0  0  0  0  0
  -24.6510  -18.7420   -9.8540 C   0  0  0  0  0  0  0  0  0  0  0  0
  -30.4600  -21.5050  -11.2460 C   0  0  0  0  0  0  0  0  0  0  0  0
  -28.0100  -20.3360  -10.6490 C   0  0  0  0  0  0  0  0  0  0  0  0
  -29.3460  -21.7100  -12.0780 C   0  0  0  0  0  0  0  0  0  0  0  0
  -27.2470  -18.9400   -8.9190 C   0  0  0  0  0  0  0  0  0  0  0  0
  -25.0380  -18.0800   -8.6770 C   0  0  0  0  0  0  0  0  0  0  0  0
  -28.6770  -19.2570   -8.7170 C   0  0  0  0  0  0  0  0  0  0  0  0
  -25.5650  -19.5150  -10.5780 C   0  0  0  0  0  0  0  0  0  0  0  0
  -29.5470  -18.7540   -7.5500 C   0  0  0  0  0  0  0  0  0  0  0  0
  -30.3630  -20.7110  -10.1010 C   0  0  0  0  0  0  0  0  0  0  0  0
  -31.8812  -22.2717  -11.5420 C   0  0  0  0  0  0  0  0  0  0  0  0
  -31.7580  -23.4881  -11.8835 O   0  0  0  0  0  0  0  0  0  0  0  0
  -32.5774  -21.4786  -12.5249 C   0  0  0  0  0  0  0  0  0  0  0  0
  -32.3290  -21.6768  -13.7984 O   0  0  0  0  0  0  0  0  0  0  0  0
  -30.2298  -17.5806   -7.7814 C   0  0  0  0  0  0  0  0  0  0  0  0
  -31.0325  -17.2146   -6.6067 C   0  0  0  0  0  0  0  0  0  0  0  0
  -30.7945  -17.5228   -5.4748 C   0  0  0  0  0  0  0  0  0  0  0  0
  -31.7946  -17.4083   -4.4180 C   0  0  0  0  0  0  0  0  0  0  0  0
  -33.2022  -20.3682  -12.3212 O   0  0  0  0  0  0  0  0  0  0  0  0
  -33.1079  -17.2204   -4.6813 C   0  0  0  0  0  0  0  0  0  0  0  0
  -33.3087  -19.1386  -12.8887 C   0  0  0  0  0  0  0  0  0  0  0  0
  -31.4345  -17.8806   -3.0189 C   0  0  0  0  0  0  0  0  0  0  0  0
  -33.2866  -18.0946  -12.0554 C   0  0  0  0  0  0  0  0  0  0  0  0
  -33.6461  -18.2156  -10.8038 O   0  0  0  0  0  0  0  0  0  0  0  0
  -32.4600  -16.8677   -6.9554 C   0  0  0  0  0  0  0  0  0  0  0  0
  -30.5867  -17.0421   -2.3707 O   0  0  0  0  0  0  0  0  0  0  0  0
  -34.1207  -17.2332   -3.6927 C   0  0  0  0  0  0  0  0  0  0  0  0
  -32.7231  -16.4273   -8.3379 C   0  0  0  0  0  0  0  0  0  0  0  0
  -32.1230  -18.7759   -2.1690 C   0  0  0  0  0  0  0  0  0  0  0  0
  -33.8916  -15.9398   -8.5036 O   0  0  0  0  0  0  0  0  0  0  0  0
  -32.0095  -16.8500   -9.3334 O   0  0  0  0  0  0  0  0  0  0  0  0
  -33.8498  -18.4881   -2.6675 C   0  0  0  0  0  0  0  0  0  0  0  0
  -32.1724  -20.1875   -2.6341 C   0  0  0  0  0  0  0  0  0  0  0  0
  -33.4585  -16.6009   -6.0021 C   0  0  0  0  0  0  0  0  0  0  0  0
  -32.0827  -18.7007   -0.7812 C   0  0  0  0  0  0  0  0  0  0  0  0
  -32.8595  -16.8281  -12.4176 O   0  0  0  0  0  0  0  0  0  0  0  0
  -30.5876  -16.7784   -9.1113 C   0  0  0  0  0  0  0  0  0  0  0  0
  -33.0781  -20.7682   -3.5719 O   0  0  0  0  0  0  0  0  0  0  0  0
  2  7  1  0
  2 11  1  0
  2 14  2  0
  3  7  1  0
  3  9  1  0
  3 12  2  0
  9 11  1  0
 11 13  2  3
  1  7  2  0
  1  8  1  0
  4  9  2  0
  4 10  1  0
  6 14  1  0
  6  8  2  0
  5 12  1  0
  5 10  2  0
  6 15  1  0
 15 16  1  0
 15 17  1  0
 17 18  2  0
 13 19  1  0
 19 20  1  0
 20 21  1  0
 21 22  2  0
 17 23  1  0
 22 24  1  0
 23 25  1  0
 22 26  1  0
 25 27  1  0
 27 28  1  0
 20 29  2  0
 26 30  1  0
 24 31  1  0
 29 32  1  0
 26 33  1  0
 32 34  2  0
 32 35  1  0
 31 36  1  0
 33 36  1  0
 33 37  1  0
 24 38  2  0
 29 38  1  0
 33 39  1  0
 27 40  2  0
 19 41  1  0
 35 41  1  0
 37 42  1  0
M  END
$$$$

     RDKit          3D

 42 48  0  0  0  0  0  0  0  0999 V2000
  -28.1100  -21.1250  -11.7830 C   0  0  0  0  0  0  0  0  0  0  0  0
  -29.1380  -20.1340   -9.8150 C   0  0  0  0  0  0  0  0  0  0  0  0
  -26.8640  -19.6120  -10.1060 C   0  0  0  0  0  0  0  0  0  0  0  0
  -26.3470  -18.1740   -8.1970 C   0  0  0  0  0  0  0  0  0  0  0  0
  -24.6510  -18.7420   -9.8540 C   0  0  0  0  0  0  0  0  0  0  0  0
  -30.4600  -21.5050  -11.2460 C   0  0  0  0  0  0  0  0  0  0  0  0
  -28.0100  -20.3360  -10.6490 C   0  0  0  0  0  0  0  0  0  0  0  0
  -29.3460  -21.7100  -12.0780 C   0  0  0  0  0  0  0  0  0  0  0  0
  -27.2470  -18.9400   -8.9190 C   0  0  0  0  0  0  0  0  0  0  0  0
  -25.0380  -18.0800   -8.6770 C   0  0  0  0  0  0  0  0  0  0  0  0
  -28.6770  -19.2570   -8.7170 C   0  0  0  0  0  0  0  0  0  0  0  0
  -25.5650  -19.5150  -10.5780 C   0  0  0  0  0  0  0  0  0  0  0  0
  -29.5470  -18.7540   -7.5500 C   0  0  0  0  0  0  0  0  0  0  0  0
  -30.3630  -20.7110  -10.1010 C   0  0  0  0  0  0  0  0  0  0  0  0
  -30.2682  -17.6131   -7.7884 C   0  0  0  0  0  0  0  0  0  0  0  0
  -31.6351  -22.1828  -11.6616 C   0  0  0  0  0  0  0  0  0  0  0  0
  -31.0673  -17.2422   -6.6095 C   0  0  0  0  0  0  0  0  0  0  0  0
  -30.8352  -17.6300   -5.4844 C   0  0  0  0  0  0  0  0  0  0  0  0
  -31.8425  -17.5181   -4.4068 C   0  0  0  0  0  0  0  0  0  0  0  0
  -32.1307  -16.5826   -6.6226 C   0  0  0  0  0  0  0  0  0  0  0  0
  -31.6243  -18.1297   -3.1096 C   0  0  0  0  0  0  0  0  0  0  0  0
  -32.0763  -22.3605  -12.7922 O   0  0  0  0  0  0  0  0  0  0  0  0
  -30.9718  -17.4917   -2.1840 O   0  0  0  0  0  0  0  0  0  0  0  0
  -32.5117  -15.8566   -8.0492 C   0  0  0  0  0  0  0  0  0  0  0  0
  -32.8162  -21.4357  -10.9214 O   0  0  0  0  0  0  0  0  0  0  0  0
  -33.5668  -20.5980  -11.5867 C   0  0  0  0  0  0  0  0  0  0  0  0
  -33.4618  -20.7939  -13.0257 C   0  0  0  0  0  0  0  0  0  0  0  0
  -32.9237  -21.8861  -13.5897 C   0  0  0  0  0  0  0  0  0  0  0  0
  -32.2302  -19.3626   -2.8077 C   0  0  0  0  0  0  0  0  0  0  0  0
  -34.2623  -19.7305  -13.7568 O   0  0  0  0  0  0  0  0  0  0  0  0
  -33.5684  -15.0987   -8.1004 O   0  0  0  0  0  0  0  0  0  0  0  0
  -31.6220  -16.0021   -9.0396 N   0  0  0  0  0  0  0  0  0  0  0  0
  -32.9807  -16.9255   -4.6781 C   0  0  0  0  0  0  0  0  0  0  0  0
  -32.4051  -19.6842   -1.5759 O   0  0  0  0  0  0  0  0  0  0  0  0
  -31.4765  -23.5397  -11.0296 F   0  0  0  0  0  0  0  0  0  0  0  0
  -33.1925  -16.1900   -5.8242 C   0  0  0  0  0  0  0  0  0  0  0  0
  -34.7831  -18.7627  -12.9772 C   0  0  0  0  0  0  0  0  0  0  0  0
  -31.8069  -15.3090  -10.2632 C   0  0  0  0  0  0  0  0  0  0  0  0
  -33.0527  -22.2374  -14.7833 O   0  0  0  0  0  0  0  0  0  0  0  0
  -34.2794  -19.4503  -11.1728 C   0  0  0  0  0  0  0  0  0  0  0  0
  -32.5763  -20.2195   -3.8084 N   0  0  0  0  0  0  0  0  0  0  0  0
  -30.4709  -16.9011   -8.8880 C   0  0  0  0  0  0  0  0  0  0  0  0
  2  7  1  0
  2 11  1  0
  2 14  2  0
  3  7  1  0
  3  9  1  0
  3 12  2  0
  9 11  1  0
 11 13  2  3
  1  7  2  0
  1  8  1  0
  4  9  2  0
  4 10  1  0
  6 14  1  0
  6  8  2  0
  5 12  1  0
  5 10  2  0
 13 15  1  0
  6 16  1  0
 15 17  1  0
 17 18  1  0
 18 19  2  0
 17 20  2  0
 19 21  1  0
 16 22  1  0
 21 23  2  0
 20 24  1  0
 16 25  1  0
 25 26  1  0
 26 27  2  0
 22 28  1  0
 27 28  1  0
 21 29  1  0
 27 30  1  0
 24 31  2  0
 24 32  1  0
 19 33  1  0
 29 34  2  0
 16 35  1  0
 20 36  1  0
 33 36  2  0
 30 37  1  0
 32 38  1  0
 28 39  2  0
 26 40  1  0
 37 40  2  0
 29 41  1  0
 15 42  2  0
 32 42  1  0
M  END
$$$$

     RDKit          3D

 42 50  0  0  0  0  0  0  0  0999 V2000
  -28.1100  -21.1250  -11.7830 C   0  0  0  0  0  0  0  0  0  0  0  0
  -29.1380  -20.1340   -9.8150 C   0  0  0  0  0  0  0  0  0  0  0  0
  -26.8640  -19.6120  -10.1060 C   0  0  0  0  0  0  0  0  0  0  0  0
  -26.3470  -18.1740   -8.1970 C   0  0  0  0  0  0  0  0  0  0  0  0
  -24.6510  -18.7420   -9.8540 C   0  0  0  0  0  0  0  0  0  0  0  0
  -30.4600  -21.5050  -11.2460 C   0  0  0  0  0  0  0  0  0  0  0  0
  -28.0100  -20.3360  -10.6490 C   0  0  0  0  0  0  0  0  0  0  0  0
  -29.3460  -21.7100  -12.0780 C   0  0  0  0  0  0  0  0  0  0  0  0
  -27.2470  -18.9400   -8.9190 C   0  0  0  0  0  0  0  0  0  0  0  0
  -25.0380  -18.0800   -8.6770 C   0  0  0  0  0  0  0  0  0  0  0  0
  -28.6770  -19.2570   -8.7170 C   0  0  0  0  0  0  0  0  0  0  0  0
  -25.5650  -19.5150  -10.5780 C   0  0  0  0  0  0  0  0  0  0  0  0
  -29.5470  -18.7540   -7.5500 C   0  0  0  0  0  0  0  0  0  0  0  0
  -30.3630  -20.7110  -10.1010 C   0  0  0  0  0  0  0  0  0  0  0  0
  -31.6372  -22.1895  -11.6585 N   0  0  0  0  0  0  0  0  0  0  0  0
  -30.2571  -17.6003   -7.7868 C   0  0  0  0  0  0  0  0  0  0  0  0
  -31.0594  -17.2358   -6.6100 C   0  0  0  0  0  0  0  0  0  0  0  0
  -32.1858  -16.7350   -6.5482 C   0  0  0  0  0  0  0  0  0  0  0  0
  -30.4666  -16.8425   -8.5780 C   0  0  0  0  0  0  0  0  0  0  0  0
  -30.9060  -18.0473   -5.1963 C   0  0  0  0  0  0  0  0  0  0  0  0
  -31.6657  -23.1435  -12.5686 C   0  0  0  0  0  0  0  0  0  0  0  0
  -32.4005  -15.7956   -7.7590 C   0  0  0  0  0  0  0  0  0  0  0  0
  -33.5120  -14.9613   -7.8632 O   0  0  0  0  0  0  0  0  0  0  0  0
  -32.9398  -22.8604  -13.3392 C   0  0  0  0  0  0  0  0  0  0  0  0
  -31.8216  -17.8552   -4.2469 C   0  0  0  0  0  0  0  0  0  0  0  0
  -33.8165  -22.0303  -12.4771 C   0  0  0  0  0  0  0  0  0  0  0  0
  -31.6574  -16.8340   -3.5217 C   0  0  0  0  0  0  0  0  0  0  0  0
  -33.1616  -17.8723   -5.0009 C   0  0  0  0  0  0  0  0  0  0  0  0
  -31.9986  -19.2998   -3.5734 C   0  0  0  0  0  0  0  0  0  0  0  0
  -33.0338  -20.1334   -3.7062 C   0  0  0  0  0  0  0  0  0  0  0  0
  -34.2109  -19.6821   -4.2303 C   0  0  0  0  0  0  0  0  0  0  0  0
  -34.1455  -14.7479   -6.8800 C   0  0  0  0  0  0  0  0  0  0  0  0
  -32.9857  -21.3229   -3.0247 O   0  0  0  0  0  0  0  0  0  0  0  0
  -34.1675  -18.4753   -4.8753 C   0  0  0  0  0  0  0  0  0  0  0  0
  -33.2272  -16.6312   -5.7481 C   0  0  0  0  0  0  0  0  0  0  0  0
  -35.1719  -13.7787   -6.9590 C   0  0  0  0  0  0  0  0  0  0  0  0
  -32.8744  -21.5153  -11.5487 C   0  0  0  0  0  0  0  0  0  0  0  0
  -34.2257  -15.7293   -5.8013 C   0  0  0  0  0  0  0  0  0  0  0  0
  -31.5193  -15.8104   -8.8745 C   0  0  0  0  0  0  0  0  0  0  0  0
  -36.0273  -13.6375   -5.8303 C   0  0  0  0  0  0  0  0  0  0  0  0
  -36.0572  -14.4398   -4.7236 C   0  0  0  0  0  0  0  0  0  0  0  0
  -35.2605  -15.4453   -4.7992 C   0  0  0  0  0  0  0  0  0  0  0  0
  2  7  1  0
  2 11  1  0
  2 14  2  0
  3  7  1  0
  3  9  1  0
  3 12  2  0
  9 11  1  0
 11 13  2  3
  1  7  2  0
  1  8  1  0
  4  9  2  0
  4 10  1  0
  6 14  1  0
  6  8  2  0
  5 12  1  0
  5 10  2  0
  6 15  1  0
 13 16  1  0
 16 17  1  0
 17 18  2  0
 16 19  2  0
 17 20  1  0
 15 21  1  0
 18 22  1  0
 22 23  1  0
 21 24  1  0
 20 25  1  0
 24 26  1  0
 25 27  1  0
 25 28  1  0
 25 29  1  0
 29 30  2  0
 30 31  1  0
 23 32  1  0
 30 33  1  0
 28 34  1  0
 31 34  2  0
 18 35  1  0
 28 35  2  0
 32 36  2  0
 15 37  1  0
 26 37  1  0
 32 38  1  0
 35 38  1  0
 19 39  1  0
 22 39  2  0
 36 40  1  0
 40 41  2  0
 38 42  2  0
 41 42  1  0
M  END
$$$$

     RDKit          3D

 43 50  0  0  0  0  0  0  0  0999 V2000
  -28.1100  -21.1250  -11.7830 C   0  0  0  0  0  0  0  0  0  0  0  0
  -29.1380  -20.1340   -9.8150 C   0  0  0  0  0  0  0  0  0  0  0  0
  -26.8640  -19.6120  -10.1060 C   0  0  0  0  0  0  0  0  0  0  0  0
  -26.3470  -18.1740   -8.1970 C   0  0  0  0  0  0  0  0  0  0  0  0
  -24.6510  -18.7420   -9.8540 C   0  0  0  0  0  0  0  0  0  0  0  0
  -30.4600  -21.5050  -11.2460 C   0  0  0  0  0  0  0  0  0  0  0  0
  -28.0100  -20.3360  -10.6490 C   0  0  0  0  0  0  0  0  0  0  0  0
  -29.3460  -21.7100  -12.0780 C   0  0  0  0  0  0  0  0  0  0  0  0
  -27.2470  -18.9400   -8.9190 C   0  0  0  0  0  0  0  0  0  0  0  0
  -25.0380  -18.0800   -8.6770 C   0  0  0  0  0  0  0  0  0  0  0  0
  -28.6770  -19.2570   -8.7170 C   0  0  0  0  0  0  0  0  0  0  0  0
  -25.5650  -19.5150  -10.5780 C   0  0  0  0  0  0  0  0  0  0  0  0
  -29.5470  -18.7540   -7.5500 C   0  0  0  0  0  0  0  0  0  0  0  0
  -30.3630  -20.7110  -10.1010 C   0  0  0  0  0  0  0  0  0  0  0  0
  -30.2682  -17.6131   -7.7884 C   0  0  0  0  0  0  0  0  0  0  0  0
  -31.8870  -22.2541  -11.5313 C   0  0  0  0  0  0  0  0  0  0  0  0
  -31.0748  -17.2494   -6.6123 C   0  0  0  0  0  0  0  0  0  0  0  0
  -32.7363  -21.5240  -12.0456 N   0  0  0  0  0  0  0  0  0  0  0  0
  -32.2123  -16.5880   -6.7015 C   0  0  0  0  0  0  0  0  0  0  0  0
  -30.4388  -16.8913   -8.9113 C   0  0  0  0  0  0  0  0  0  0  0  0
  -30.8655  -17.8672   -5.3205 C   0  0  0  0  0  0  0  0  0  0  0  0
  -33.2233  -16.3508   -5.7356 C   0  0  0  0  0  0  0  0  0  0  0  0
  -34.3840  -15.6550   -5.9943 O   0  0  0  0  0  0  0  0  0  0  0  0
  -31.7328  -17.7891   -4.2474 C   0  0  0  0  0  0  0  0  0  0  0  0
  -31.5306  -15.9507   -9.0333 C   0  0  0  0  0  0  0  0  0  0  0  0
  -31.7539  -23.2229  -12.6371 C   0  0  0  0  0  0  0  0  0  0  0  0
  -34.2759  -14.6293   -6.7753 C   0  0  0  0  0  0  0  0  0  0  0  0
  -33.3547  -21.9917  -13.1003 C   0  0  0  0  0  0  0  0  0  0  0  0
  -33.6082  -14.8344   -8.0984 C   0  0  0  0  0  0  0  0  0  0  0  0
  -32.4296  -15.7921   -7.9644 C   0  0  0  0  0  0  0  0  0  0  0  0
  -32.8989  -20.1937  -11.6446 C   0  0  0  0  0  0  0  0  0  0  0  0
  -32.9912  -17.1217   -4.4815 C   0  0  0  0  0  0  0  0  0  0  0  0
  -31.7684  -18.5954   -3.1077 C   0  0  0  0  0  0  0  0  0  0  0  0
  -32.4909  -19.8224   -2.9956 C   0  0  0  0  0  0  0  0  0  0  0  0
  -34.7807  -13.4332   -6.6644 C   0  0  0  0  0  0  0  0  0  0  0  0
  -34.1620  -21.1906  -13.9883 O   0  0  0  0  0  0  0  0  0  0  0  0
  -33.6325  -14.0053   -9.1884 C   0  0  0  0  0  0  0  0  0  0  0  0
  -32.8868  -23.0396  -13.5221 N   0  0  0  0  0  0  0  0  0  0  0  0
  -35.1012  -12.5523   -7.7282 C   0  0  0  0  0  0  0  0  0  0  0  0
  -32.7226  -20.4304   -1.9319 O   0  0  0  0  0  0  0  0  0  0  0  0
  -35.7949  -11.3554   -7.5401 O   0  0  0  0  0  0  0  0  0  0  0  0
  -34.4997  -12.8190   -9.0036 C   0  0  0  0  0  0  0  0  0  0  0  0
  -32.9124  -20.2188   -4.1904 O   0  0  0  0  0  0  0  0  0  0  0  0
  2  7  1  0
  2 11  1  0
  2 14  2  0
  3  7  1  0
  3  9  1  0
  3 12  2  0
  9 11  1  0
 11 13  2  3
  1  7  2  0
  1  8  1  0
  4  9  2  0
  4 10  1  0
  6 14  1  0
  6  8  2  0
  5 12  1  0
  5 10  2  0
 13 15  1  0
  6 16  1  0
 15 17  1  0
 16 18  1  0
 17 19  2  0
 15 20  2  0
 17 21  1  0
 19 22  1  0
 22 23  1  0
 21 24  2  0
 20 25  1  0
 16 26  1  0
 23 27  1  0
 18 28  1  0
 27 29  1  0
 19 30  1  0
 25 30  2  0
 29 30  1  0
 18 31  1  0
 22 32  2  0
 24 32  1  0
 24 33  1  0
 33 34  1  0
 27 35  2  0
 28 36  2  0
 29 37  2  0
 26 38  1  0
 28 38  1  0
 35 39  1  0
 34 40  1  0
 39 41  1  0
 37 42  1  0
 39 42  2  0
 34 43  2  0
M  END
$$$$

     RDKit          3D

 43 48  0  0  0  0  0  0  0  0999 V2000
  -28.1100  -21.1250  -11.7830 C   0  0  0  0  0  0  0  0  0  0  0  0
  -29.1380  -20.1340   -9.8150 C   0  0  0  0  0  0  0  0  0  0  0  0
  -26.8640  -19.6120  -10.1060 C   0  0  0  0  0  0  0  0  0  0  0  0
  -26.3470  -18.1740   -8.1970 C   0  0  0  0  0  0  0  0  0  0  0  0
  -24.6510  -18.7420   -9.8540 C   0  0  0  0  0  0  0  0  0  0  0  0
  -30.4600  -21.5050  -11.2460 C   0  0  0  0  0  0  0  0  0  0  0  0
  -28.0100  -20.3360  -10.6490 C   0  0  0  0  0  0  0  0  0  0  0  0
  -29.3460  -21.7100  -12.0780 C   0  0  0  0  0  0  0  0  0  0  0  0
  -27.2470  -18.9400   -8.9190 C   0  0  0  0  0  0  0  0  0  0  0  0
  -25.0380  -18.0800   -8.6770 C   0  0  0  0  0  0  0  0  0  0  0  0
  -28.6770  -19.2570   -8.7170 C   0  0  0  0  0  0  0  0  0  0  0  0
  -25.5650  -19.5150  -10.5780 C   0  0  0  0  0  0  0  0  0  0  0  0
  -29.5470  -18.7540   -7.5500 C   0  0  0  0  0  0  0  0  0  0  0  0
  -30.3630  -20.7110  -10.1010 C   0  0  0  0  0  0  0  0  0  0  0  0
  -31.6372  -22.1895  -11.6585 N   0  0  0  0  0  0  0  0  0  0  0  0
  -30.2571  -17.6003   -7.7868 C   0  0  0  0  0  0  0  0  0  0  0  0
  -31.0594  -17.2358   -6.6100 C   0  0  0  0  0  0  0  0  0  0  0  0
  -32.1858  -16.7350   -6.5482 C   0  0  0  0  0  0  0  0  0  0  0  0
  -30.4666  -16.8425   -8.5780 C   0  0  0  0  0  0  0  0  0  0  0  0
  -30.9060  -18.0473   -5.1963 C   0  0  0  0  0  0  0  0  0  0  0  0
  -31.6657  -23.1435  -12.5686 C   0  0  0  0  0  0  0  0  0  0  0  0
  -31.7940  -17.7755   -4.2400 C   0  0  0  0  0  0  0  0  0  0  0  0
  -33.2340  -16.6169   -5.7193 C   0  0  0  0  0  0  0  0  0  0  0  0
  -32.7521  -21.2022  -11.9255 C   0  0  0  0  0  0  0  0  0  0  0  0
  -34.3931  -15.8325   -5.9756 O   0  0  0  0  0  0  0  0  0  0  0  0
  -33.2098  -17.2356   -4.4846 C   0  0  0  0  0  0  0  0  0  0  0  0
  -33.1546  -20.7649  -12.9870 O   0  0  0  0  0  0  0  0  0  0  0  0
  -33.1935  -20.4638  -10.8726 O   0  0  0  0  0  0  0  0  0  0  0  0
  -33.7845  -19.5207  -13.2101 C   0  0  0  0  0  0  0  0  0  0  0  0
  -34.6658  -19.5273  -14.2459 C   0  0  0  0  0  0  0  0  0  0  0  0
  -33.1444  -18.4334  -12.9289 C   0  0  0  0  0  0  0  0  0  0  0  0
  -31.0921  -16.8965   -3.2458 C   0  0  0  0  0  0  0  0  0  0  0  0
  -30.5115  -15.8157   -3.4676 O   0  0  0  0  0  0  0  0  0  0  0  0
  -29.5350  -16.7743   -9.7654 C   0  0  0  0  0  0  0  0  0  0  0  0
  -31.2869  -15.6839   -8.4008 C   0  0  0  0  0  0  0  0  0  0  0  0
  -32.1974  -19.1220   -3.5348 C   0  0  0  0  0  0  0  0  0  0  0  0
  -31.7977  -19.3759   -2.3534 O   0  0  0  0  0  0  0  0  0  0  0  0
  -32.3338  -15.7673   -7.8199 C   0  0  0  0  0  0  0  0  0  0  0  0
  -35.2777  -18.3475  -14.6897 C   0  0  0  0  0  0  0  0  0  0  0  0
  -34.7659  -17.1218  -14.2651 C   0  0  0  0  0  0  0  0  0  0  0  0
  -31.2388  -17.0663   -1.9011 O   0  0  0  0  0  0  0  0  0  0  0  0
  -32.7786  -19.9522   -4.2806 O   0  0  0  0  0  0  0  0  0  0  0  0
  -33.6134  -17.0635  -13.3267 C   0  0  0  0  0  0  0  0  0  0  0  0
  2  7  1  0
  2 11  1  0
  2 14  2  0
  3  7  1  0
  3  9  1  0
  3 12  2  0
  9 11  1  0
 11 13  2  3
  1  7  2  0
  1  8  1  0
  4  9  2  0
  4 10  1  0
  6 14  1  0
  6  8  2  0
  5 12  1  0
  5 10  2  0
  6 15  1  0
 13 16  1  0
 16 17  1  0
 17 18  2  0
 16 19  2  0
 17 20  1  0
 15 21  1  0
 20 22  1  0
 18 23  1  0
 15 24  1  0
 23 25  2  0
 22 26  1  0
 23 26  1  0
 24 27  1  0
 24 28  2  0
 27 29  1  0
 29 30  1  0
 29 31  2  0
 22 32  1  0
 32 33  2  0
 19 34  1  0
 19 35  1  0
 22 36  1  0
 36 37  2  0
 18 38  1  0
 35 38  2  0
 30 39  2  0
 39 40  1  0
 32 41  1  0
 36 42  1  0
 31 43  1  0
 40 43  2  0
M  END
$$$$

     RDKit          3D

 43 48  0  0  0  0  0  0  0  0999 V2000
  -28.1100  -21.1250  -11.7830 C   0  0  0  0  0  0  0  0  0  0  0  0
  -29.1380  -20.1340   -9.8150 C   0  0  0  0  0  0  0  0  0  0  0  0
  -26.8640  -19.6120  -10.1060 C   0  0  0  0  0  0  0  0  0  0  0  0
  -26.3470  -18.1740   -8.1970 C   0  0  0  0  0  0  0  0  0  0  0  0
  -24.6510  -18.7420   -9.8540 C   0  0  0  0  0  0  0  0  0  0  0  0
  -30.4600  -21.5050  -11.2460 C   0  0  0  0  0  0  0  0  0  0  0  0
  -28.0100  -20.3360  -10.6490 C   0  0  0  0  0  0  0  0  0  0  0  0
  -29.3460  -21.7100  -12.0780 C   0  0  0  0  0  0  0  0  0  0  0  0
  -27.2470  -18.9400   -8.9190 C   0  0  0  0  0  0  0  0  0  0  0  0
  -25.0380  -18.0800   -8.6770 C   0  0  0  0  0  0  0  0  0  0  0  0
  -28.6770  -19.2570   -8.7170 C   0  0  0  0  0  0  0  0  0  0  0  0
  -25.5650  -19.5150  -10.5780 C   0  0  0  0  0  0  0  0  0  0  0  0
  -29.5470  -18.7540   -7.5500 C   0  0  0  0  0  0  0  0  0  0  0  0
  -30.3630  -20.7110  -10.1010 C   0  0  0  0  0  0  0  0  0  0  0  0
  -31.6372  -22.1895  -11.6585 N   0  0  0  0  0  0  0  0  0  0  0  0
  -30.2571  -17.6003   -7.7868 C   0  0  0  0  0  0  0  0  0  0  0  0
  -31.0594  -17.2358   -6.6100 C   0  0  0  0  0  0  0  0  0  0  0  0
  -32.1858  -16.7350   -6.5482 C   0  0  0  0  0  0  0  0  0  0  0  0
  -30.4666  -16.8425   -8.5780 C   0  0  0  0  0  0  0  0  0  0  0  0
  -30.9060  -18.0473   -5.1963 C   0  0  0  0  0  0  0  0  0  0  0  0
  -31.6657  -23.1435  -12.5686 C   0  0  0  0  0  0  0  0  0  0  0  0
  -31.7940  -17.7755   -4.2400 C   0  0  0  0  0  0  0  0  0  0  0  0
  -33.2340  -16.6169   -5.7193 C   0  0  0  0  0  0  0  0  0  0  0  0
  -32.7521  -21.2022  -11.9255 C   0  0  0  0  0  0  0  0  0  0  0  0
  -34.3931  -15.8325   -5.9756 O   0  0  0  0  0  0  0  0  0  0  0  0
  -33.2098  -17.2356   -4.4846 C   0  0  0  0  0  0  0  0  0  0  0  0
  -33.1546  -20.7649  -12.9870 O   0  0  0  0  0  0  0  0  0  0  0  0
  -33.1935  -20.4638  -10.8726 O   0  0  0  0  0  0  0  0  0  0  0  0
  -33.7845  -19.5207  -13.2101 C   0  0  0  0  0  0  0  0  0  0  0  0
  -34.6658  -19.5273  -14.2459 C   0  0  0  0  0  0  0  0  0  0  0  0
  -33.1444  -18.4334  -12.9289 C   0  0  0  0  0  0  0  0  0  0  0  0
  -31.0921  -16.8965   -3.2458 C   0  0  0  0  0  0  0  0  0  0  0  0
  -30.5115  -15.8157   -3.4676 O   0  0  0  0  0  0  0  0  0  0  0  0
  -29.5350  -16.7743   -9.7654 C   0  0  0  0  0  0  0  0  0  0  0  0
  -31.2869  -15.6839   -8.4008 C   0  0  0  0  0  0  0  0  0  0  0  0
  -32.1974  -19.1220   -3.5348 C   0  0  0  0  0  0  0  0  0  0  0  0
  -31.7977  -19.3759   -2.3534 O   0  0  0  0  0  0  0  0  0  0  0  0
  -32.3338  -15.7673   -7.8199 C   0  0  0  0  0  0  0  0  0  0  0  0
  -35.2777  -18.3475  -14.6897 C   0  0  0  0  0  0  0  0  0  0  0  0
  -34.7659  -17.1218  -14.2651 C   0  0  0  0  0  0  0  0  0  0  0  0
  -31.2388  -17.0663   -1.9011 O   0  0  0  0  0  0  0  0  0  0  0  0
  -32.9445  -19.9399   -4.1436 N   0  0  0  0  0  0  0  0  0  0  0  0
  -33.7521  -17.0052  -13.3958 C   0  0  0  0  0  0  0  0  0  0  0  0
  2  7  1  0
  2 11  1  0
  2 14  2  0
  3  7  1  0
  3  9  1  0
  3 12  2  0
  9 11  1  0
 11 13  2  3
  1  7  2  0
  1  8  1  0
  4  9  2  0
  4 10  1  0
  6 14  1  0
  6  8  2  0
  5 12  1  0
  5 10  2  0
  6 15  1  0
 13 16  1  0
 16 17  1  0
 17 18  2  0
 16 19  2  0
 17 20  1  0
 15 21  1  0
 20 22  1  0
 18 23  1  0
 15 24  1  0
 23 25  2  0
 22 26  1  0
 23 26  1  0
 24 27  1  0
 24 28  2  0
 27 29  1  0
 29 30  1  0
 29 31  2  0
 22 32  1  0
 32 33  2  0
 19 34  1  0
 19 35  1  0
 22 36  1  0
 36 37  2  0
 18 38  1  0
 35 38  2  0
 30 39  2  0
 39 40  1  0
 32 41  1  0
 36 42  1  0
 31 43  1  0
 40 43  2  0
M  END
$$$$

     RDKit          3D

 43 49  0  0  0  0  0  0  0  0999 V2000
  -28.1100  -21.1250  -11.7830 C   0  0  0  0  0  0  0  0  0  0  0  0
  -29.1380  -20.1340   -9.8150 C   0  0  0  0  0  0  0  0  0  0  0  0
  -26.8640  -19.6120  -10.1060 C   0  0  0  0  0  0  0  0  0  0  0  0
  -26.3470  -18.1740   -8.1970 C   0  0  0  0  0  0  0  0  0  0  0  0
  -24.6510  -18.7420   -9.8540 C   0  0  0  0  0  0  0  0  0  0  0  0
  -30.4600  -21.5050  -11.2460 C   0  0  0  0  0  0  0  0  0  0  0  0
  -28.0100  -20.3360  -10.6490 C   0  0  0  0  0  0  0  0  0  0  0  0
  -29.3460  -21.7100  -12.0780 C   0  0  0  0  0  0  0  0  0  0  0  0
  -27.2470  -18.9400   -8.9190 C   0  0  0  0  0  0  0  0  0  0  0  0
  -25.0380  -18.0800   -8.6770 C   0  0  0  0  0  0  0  0  0  0  0  0
  -28.6770  -19.2570   -8.7170 C   0  0  0  0  0  0  0  0  0  0  0  0
  -25.5650  -19.5150  -10.5780 C   0  0  0  0  0  0  0  0  0  0  0  0
  -29.5470  -18.7540   -7.5500 C   0  0  0  0  0  0  0  0  0  0  0  0
  -30.3630  -20.7110  -10.1010 C   0  0  0  0  0  0  0  0  0  0  0  0
  -30.2682  -17.6131   -7.7884 C   0  0  0  0  0  0  0  0  0  0  0  0
  -31.6351  -22.1828  -11.6616 C   0  0  0  0  0  0  0  0  0  0  0  0
  -31.0673  -17.2422   -6.6095 C   0  0  0  0  0  0  0  0  0  0  0  0
  -30.8352  -17.6300   -5.4844 C   0  0  0  0  0  0  0  0  0  0  0  0
  -31.8425  -17.5181   -4.4068 C   0  0  0  0  0  0  0  0  0  0  0  0
  -32.1307  -16.5826   -6.6226 C   0  0  0  0  0  0  0  0  0  0  0  0
  -31.6243  -18.1297   -3.1096 C   0  0  0  0  0  0  0  0  0  0  0  0
  -32.0763  -22.3605  -12.7922 O   0  0  0  0  0  0  0  0  0  0  0  0
  -30.9718  -17.4917   -2.1840 O   0  0  0  0  0  0  0  0  0  0  0  0
  -32.5117  -15.8566   -8.0492 C   0  0  0  0  0  0  0  0  0  0  0  0
  -32.8162  -21.4357  -10.9214 O   0  0  0  0  0  0  0  0  0  0  0  0
  -33.5668  -20.5980  -11.5867 C   0  0  0  0  0  0  0  0  0  0  0  0
  -33.4618  -20.7939  -13.0257 C   0  0  0  0  0  0  0  0  0  0  0  0
  -32.2308  -19.3618   -2.8070 C   0  0  0  0  0  0  0  0  0  0  0  0
  -30.8106  -17.1351   -9.0755 C   0  0  0  0  0  0  0  0  0  0  0  0
  -34.4080  -19.8209  -13.7991 C   0  0  0  0  0  0  0  0  0  0  0  0
  -31.8014  -16.2069   -9.1686 C   0  0  0  0  0  0  0  0  0  0  0  0
  -35.1571  -18.8089  -13.2363 C   0  0  0  0  0  0  0  0  0  0  0  0
  -32.6127  -20.3002   -3.8189 O   0  0  0  0  0  0  0  0  0  0  0  0
  -34.4748  -19.6475  -11.1379 C   0  0  0  0  0  0  0  0  0  0  0  0
  -32.7557  -21.6610  -13.7187 C   0  0  0  0  0  0  0  0  0  0  0  0
  -32.6524  -21.8925  -14.9177 O   0  0  0  0  0  0  0  0  0  0  0  0
  -35.2166  -18.7884  -11.8556 C   0  0  0  0  0  0  0  0  0  0  0  0
  -32.9192  -16.7424   -4.8798 C   0  0  0  0  0  0  0  0  0  0  0  0
  -33.8963  -16.4570   -3.7136 C   0  0  0  0  0  0  0  0  0  0  0  0
  -32.1889  -19.8431   -1.6071 O   0  0  0  0  0  0  0  0  0  0  0  0
  -33.0720  -16.1995   -5.9464 C   0  0  0  0  0  0  0  0  0  0  0  0
  -34.0720  -15.3400   -3.1919 O   0  0  0  0  0  0  0  0  0  0  0  0
  -34.8377  -17.3921   -3.3768 O   0  0  0  0  0  0  0  0  0  0  0  0
  2  7  1  0
  2 11  1  0
  2 14  2  0
  3  7  1  0
  3  9  1  0
  3 12  2  0
  9 11  1  0
 11 13  2  3
  1  7  2  0
  1  8  1  0
  4  9  2  0
  4 10  1  0
  6 14  1  0
  6  8  2  0
  5 12  1  0
  5 10  2  0
 13 15  1  0
  6 16  1  0
 15 17  1  0
 17 18  1  0
 18 19  2  0
 17 20  2  0
 19 21  1  0
 16 22  1  0
 21 23  2  0
 20 24  1  0
 16 25  1  0
 25 26  1  0
 26 27  2  0
 21 28  1  0
 15 29  2  0
 27 30  1  0
 24 31  2  0
 29 31  1  0
 30 32  2  0
 28 33  2  0
 26 34  1  0
 22 35  1  0
 27 35  1  0
 35 36  2  0
 32 37  1  0
 34 37  2  0
 19 38  1  0
 38 39  1  0
 28 40  1  0
 20 41  1  0
 38 41  2  0
 39 42  2  0
 39 43  1  0
M  END
$$$$

     RDKit          3D

 44 51  0  0  0  0  0  0  0  0999 V2000
  -28.1100  -21.1250  -11.7830 C   0  0  0  0  0  0  0  0  0  0  0  0
  -29.1380  -20.1340   -9.8150 C   0  0  0  0  0  0  0  0  0  0  0  0
  -26.8640  -19.6120  -10.1060 C   0  0  0  0  0  0  0  0  0  0  0  0
  -26.3470  -18.1740   -8.1970 C   0  0  0  0  0  0  0  0  0  0  0  0
  -24.6510  -18.7420   -9.8540 C   0  0  0  0  0  0  0  0  0  0  0  0
  -30.4600  -21.5050  -11.2460 C   0  0  0  0  0  0  0  0  0  0  0  0
  -28.0100  -20.3360  -10.6490 C   0  0  0  0  0  0  0  0  0  0  0  0
  -29.3460  -21.7100  -12.0780 C   0  0  0  0  0  0  0  0  0  0  0  0
  -27.2470  -18.9400   -8.9190 C   0  0  0  0  0  0  0  0  0  0  0  0
  -25.0380  -18.0800   -8.6770 C   0  0  0  0  0  0  0  0  0  0  0  0
  -28.6770  -19.2570   -8.7170 C   0  0  0  0  0  0  0  0  0  0  0  0
  -25.5650  -19.5150  -10.5780 C   0  0  0  0  0  0  0  0  0  0  0  0
  -29.5470  -18.7540   -7.5500 C   0  0  0  0  0  0  0  0  0  0  0  0
  -30.3630  -20.7110  -10.1010 C   0  0  0  0  0  0  0  0  0  0  0  0
  -30.2682  -17.6131   -7.7884 C   0  0  0  0  0  0  0  0  0  0  0  0
  -31.8870  -22.2541  -11.5313 C   0  0  0  0  0  0  0  0  0  0  0  0
  -31.0748  -17.2494   -6.6123 C   0  0  0  0  0  0  0  0  0  0  0  0
  -32.7363  -21.5240  -12.0456 N   0  0  0  0  0  0  0  0  0  0  0  0
  -32.2123  -16.5880   -6.7015 C   0  0  0  0  0  0  0  0  0  0  0  0
  -30.4388  -16.8913   -8.9113 C   0  0  0  0  0  0  0  0  0  0  0  0
  -30.8655  -17.8672   -5.3205 C   0  0  0  0  0  0  0  0  0  0  0  0
  -33.2233  -16.3508   -5.7356 C   0  0  0  0  0  0  0  0  0  0  0  0
  -34.3840  -15.6550   -5.9943 O   0  0  0  0  0  0  0  0  0  0  0  0
  -31.7328  -17.7891   -4.2474 C   0  0  0  0  0  0  0  0  0  0  0  0
  -31.5306  -15.9507   -9.0333 C   0  0  0  0  0  0  0  0  0  0  0  0
  -31.7539  -23.2229  -12.6371 C   0  0  0  0  0  0  0  0  0  0  0  0
  -34.2759  -14.6293   -6.7753 C   0  0  0  0  0  0  0  0  0  0  0  0
  -33.3547  -21.9917  -13.1003 C   0  0  0  0  0  0  0  0  0  0  0  0
  -33.6082  -14.8344   -8.0984 C   0  0  0  0  0  0  0  0  0  0  0  0
  -32.4296  -15.7921   -7.9644 C   0  0  0  0  0  0  0  0  0  0  0  0
  -32.8989  -20.1937  -11.6446 C   0  0  0  0  0  0  0  0  0  0  0  0
  -32.9912  -17.1217   -4.4815 C   0  0  0  0  0  0  0  0  0  0  0  0
  -31.7684  -18.5954   -3.1077 C   0  0  0  0  0  0  0  0  0  0  0  0
  -32.4909  -19.8224   -2.9956 C   0  0  0  0  0  0  0  0  0  0  0  0
  -34.7807  -13.4332   -6.6644 C   0  0  0  0  0  0  0  0  0  0  0  0
  -34.1620  -21.1906  -13.9883 O   0  0  0  0  0  0  0  0  0  0  0  0
  -33.6325  -14.0053   -9.1884 C   0  0  0  0  0  0  0  0  0  0  0  0
  -32.8868  -23.0396  -13.5221 N   0  0  0  0  0  0  0  0  0  0  0  0
  -35.1012  -12.5523   -7.7282 C   0  0  0  0  0  0  0  0  0  0  0  0
  -32.7226  -20.4304   -1.9319 O   0  0  0  0  0  0  0  0  0  0  0  0
  -35.7949  -11.3554   -7.5401 O   0  0  0  0  0  0  0  0  0  0  0  0
  -32.7436  -20.2919   -4.2201 O   0  0  0  0  0  0  0  0  0  0  0  0
  -33.1622  -14.2570  -10.4052 O   0  0  0  0  0  0  0  0  0  0  0  0
  -34.4274  -12.7826   -8.9823 C   0  0  0  0  0  0  0  0  0  0  0  0
  2  7  1  0
  2 11  1  0
  2 14  2  0
  3  7  1  0
  3  9  1  0
  3 12  2  0
  9 11  1  0
 11 13  2  3
  1  7  2  0
  1  8  1  0
  4  9  2  0
  4 10  1  0
  6 14  1  0
  6  8  2  0
  5 12  1  0
  5 10  2  0
 13 15  1  0
  6 16  1  0
 15 17  1  0
 16 18  1  0
 17 19  2  0
 15 20  2  0
 17 21  1  0
 19 22  1  0
 22 23  1  0
 21 24  2  0
 20 25  1  0
 16 26  1  0
 23 27  1  0
 18 28  1  0
 27 29  1  0
 19 30  1  0
 25 30  2  0
 29 30  1  0
 18 31  1  0
 22 32  2  0
 24 32  1  0
 24 33  1  0
 33 34  1  0
 27 35  2  0
 28 36  2  0
 29 37  2  0
 26 38  1  0
 28 38  1  0
 35 39  1  0
 34 40  1  0
 39 41  1  0
 34 42  2  0
 37 43  1  0
 37 44  1  0
 39 44  2  0
M  END
$$$$

     RDKit          3D

 44 50  0  0  0  0  0  0  0  0999 V2000
  -28.1100  -21.1250  -11.7830 C   0  0  0  0  0  0  0  0  0  0  0  0
  -29.1380  -20.1340   -9.8150 C   0  0  0  0  0  0  0  0  0  0  0  0
  -26.8640  -19.6120  -10.1060 C   0  0  0  0  0  0  0  0  0  0  0  0
  -26.3470  -18.1740   -8.1970 C   0  0  0  0  0  0  0  0  0  0  0  0
  -24.6510  -18.7420   -9.8540 C   0  0  0  0  0  0  0  0  0  0  0  0
  -30.4600  -21.5050  -11.2460 C   0  0  0  0  0  0  0  0  0  0  0  0
  -28.0100  -20.3360  -10.6490 C   0  0  0  0  0  0  0  0  0  0  0  0
  -29.3460  -21.7100  -12.0780 C   0  0  0  0  0  0  0  0  0  0  0  0
  -27.2470  -18.9400   -8.9190 C   0  0  0  0  0  0  0  0  0  0  0  0
  -25.0380  -18.0800   -8.6770 C   0  0  0  0  0  0  0  0  0  0  0  0
  -28.6770  -19.2570   -8.7170 C   0  0  0  0  0  0  0  0  0  0  0  0
  -25.5650  -19.5150  -10.5780 C   0  0  0  0  0  0  0  0  0  0  0  0
  -29.5470  -18.7540   -7.5500 C   0  0  0  0  0  0  0  0  0  0  0  0
  -30.3630  -20.7110  -10.1010 C   0  0  0  0  0  0  0  0  0  0  0  0
  -30.2682  -17.6131   -7.7884 C   0  0  0  0  0  0  0  0  0  0  0  0
  -31.6351  -22.1828  -11.6616 C   0  0  0  0  0  0  0  0  0  0  0  0
  -31.0673  -17.2422   -6.6095 C   0  0  0  0  0  0  0  0  0  0  0  0
  -30.8352  -17.6300   -5.4844 C   0  0  0  0  0  0  0  0  0  0  0  0
  -31.8425  -17.5181   -4.4068 C   0  0  0  0  0  0  0  0  0  0  0  0
  -32.1307  -16.5826   -6.6226 C   0  0  0  0  0  0  0  0  0  0  0  0
  -31.6243  -18.1297   -3.1096 C   0  0  0  0  0  0  0  0  0  0  0  0
  -32.0763  -22.3605  -12.7922 O   0  0  0  0  0  0  0  0  0  0  0  0
  -30.9718  -17.4917   -2.1840 O   0  0  0  0  0  0  0  0  0  0  0  0
  -32.5117  -15.8566   -8.0492 C   0  0  0  0  0  0  0  0  0  0  0  0
  -32.8162  -21.4357  -10.9214 O   0  0  0  0  0  0  0  0  0  0  0  0
  -33.5668  -20.5980  -11.5867 C   0  0  0  0  0  0  0  0  0  0  0  0
  -33.4618  -20.7939  -13.0257 C   0  0  0  0  0  0  0  0  0  0  0  0
  -32.9237  -21.8861  -13.5897 C   0  0  0  0  0  0  0  0  0  0  0  0
  -32.2302  -19.3626   -2.8077 C   0  0  0  0  0  0  0  0  0  0  0  0
  -34.2623  -19.7305  -13.7568 O   0  0  0  0  0  0  0  0  0  0  0  0
  -33.5684  -15.0987   -8.1004 O   0  0  0  0  0  0  0  0  0  0  0  0
  -31.6220  -16.0021   -9.0396 N   0  0  0  0  0  0  0  0  0  0  0  0
  -32.9807  -16.9255   -4.6781 C   0  0  0  0  0  0  0  0  0  0  0  0
  -32.4051  -19.6842   -1.5759 O   0  0  0  0  0  0  0  0  0  0  0  0
  -31.8681  -15.3531  -10.2297 C   0  0  0  0  0  0  0  0  0  0  0  0
  -34.0745  -19.3990  -11.1423 C   0  0  0  0  0  0  0  0  0  0  0  0
  -33.2285  -16.2100   -5.8418 C   0  0  0  0  0  0  0  0  0  0  0  0
  -34.7128  -18.5280  -12.0360 C   0  0  0  0  0  0  0  0  0  0  0  0
  -34.7044  -18.8026  -13.0998 C   0  0  0  0  0  0  0  0  0  0  0  0
  -34.0619  -19.2265   -9.7839 O   0  0  0  0  0  0  0  0  0  0  0  0
  -32.4900  -20.2619   -3.8084 O   0  0  0  0  0  0  0  0  0  0  0  0
  -31.9511  -23.4784  -10.7892 F   0  0  0  0  0  0  0  0  0  0  0  0
  -32.8258  -21.8351  -14.9261 O   0  0  0  0  0  0  0  0  0  0  0  0
  -30.6108  -16.9285   -8.9439 C   0  0  0  0  0  0  0  0  0  0  0  0
  2  7  1  0
  2 11  1  0
  2 14  2  0
  3  7  1  0
  3  9  1  0
  3 12  2  0
  9 11  1  0
 11 13  2  3
  1  7  2  0
  1  8  1  0
  4  9  2  0
  4 10  1  0
  6 14  1  0
  6  8  2  0
  5 12  1  0
  5 10  2  0
 13 15  1  0
  6 16  1  0
 15 17  1  0
 17 18  1  0
 18 19  2  0
 17 20  2  0
 19 21  1  0
 16 22  1  0
 21 23  2  0
 20 24  1  0
 16 25  1  0
 25 26  1  0
 26 27  2  0
 22 28  1  0
 27 28  1  0
 21 29  1  0
 27 30  1  0
 24 31  2  0
 24 32  1  0
 19 33  1  0
 29 34  2  0
 32 35  1  0
 26 36  1  0
 20 37  1  0
 33 37  2  0
 36 38  1  0
 30 39  1  0
 38 39  2  0
 36 40  1  0
 29 41  1  0
 16 42  1  0
 28 43  2  0
 15 44  2  0
 32 44  1  0
M  END
$$$$

     RDKit          3D

 44 50  0  0  0  0  0  0  0  0999 V2000
  -28.1100  -21.1250  -11.7830 C   0  0  0  0  0  0  0  0  0  0  0  0
  -29.1380  -20.1340   -9.8150 C   0  0  0  0  0  0  0  0  0  0  0  0
  -26.8640  -19.6120  -10.1060 C   0  0  0  0  0  0  0  0  0  0  0  0
  -26.3470  -18.1740   -8.1970 C   0  0  0  0  0  0  0  0  0  0  0  0
  -24.6510  -18.7420   -9.8540 C   0  0  0  0  0  0  0  0  0  0  0  0
  -30.4600  -21.5050  -11.2460 C   0  0  0  0  0  0  0  0  0  0  0  0
  -28.0100  -20.3360  -10.6490 C   0  0  0  0  0  0  0  0  0  0  0  0
  -29.3460  -21.7100  -12.0780 C   0  0  0  0  0  0  0  0  0  0  0  0
  -27.2470  -18.9400   -8.9190 C   0  0  0  0  0  0  0  0  0  0  0  0
  -25.0380  -18.0800   -8.6770 C   0  0  0  0  0  0  0  0  0  0  0  0
  -28.6770  -19.2570   -8.7170 C   0  0  0  0  0  0  0  0  0  0  0  0
  -25.5650  -19.5150  -10.5780 C   0  0  0  0  0  0  0  0  0  0  0  0
  -29.5470  -18.7540   -7.5500 C   0  0  0  0  0  0  0  0  0  0  0  0
  -30.3630  -20.7110  -10.1010 C   0  0  0  0  0  0  0  0  0  0  0  0
  -30.2682  -17.6131   -7.7884 C   0  0  0  0  0  0  0  0  0  0  0  0
  -31.8870  -22.2541  -11.5313 C   0  0  0  0  0  0  0  0  0  0  0  0
  -31.0748  -17.2494   -6.6123 C   0  0  0  0  0  0  0  0  0  0  0  0
  -32.7363  -21.5240  -12.0456 N   0  0  0  0  0  0  0  0  0  0  0  0
  -32.2123  -16.5880   -6.7015 C   0  0  0  0  0  0  0  0  0  0  0  0
  -30.4388  -16.8913   -8.9113 C   0  0  0  0  0  0  0  0  0  0  0  0
  -30.8655  -17.8672   -5.3205 C   0  0  0  0  0  0  0  0  0  0  0  0
  -33.2233  -16.3508   -5.7356 C   0  0  0  0  0  0  0  0  0  0  0  0
  -34.3840  -15.6550   -5.9943 O   0  0  0  0  0  0  0  0  0  0  0  0
  -31.7328  -17.7891   -4.2474 C   0  0  0  0  0  0  0  0  0  0  0  0
  -31.5306  -15.9507   -9.0333 C   0  0  0  0  0  0  0  0  0  0  0  0
  -33.1089  -17.0939   -4.6040 C   0  0  0  0  0  0  0  0  0  0  0  0
  -31.9745  -23.5067  -11.4675 N   0  0  0  0  0  0  0  0  0  0  0  0
  -31.6280  -18.4571   -3.0251 C   0  0  0  0  0  0  0  0  0  0  0  0
  -31.6396  -15.2492  -10.2489 O   0  0  0  0  0  0  0  0  0  0  0  0
  -34.4366  -15.1159   -7.2334 C   0  0  0  0  0  0  0  0  0  0  0  0
  -32.3561  -15.9026  -11.1589 C   0  0  0  0  0  0  0  0  0  0  0  0
  -30.7641  -17.8870   -2.2312 C   0  0  0  0  0  0  0  0  0  0  0  0
  -32.4021  -15.7639   -7.9880 C   0  0  0  0  0  0  0  0  0  0  0  0
  -30.0315  -16.6955   -2.4147 O   0  0  0  0  0  0  0  0  0  0  0  0
  -33.5087  -15.0030   -8.1713 C   0  0  0  0  0  0  0  0  0  0  0  0
  -32.2506  -19.6535   -2.7348 C   0  0  0  0  0  0  0  0  0  0  0  0
  -30.6606  -18.4668   -0.8874 C   0  0  0  0  0  0  0  0  0  0  0  0
  -32.9397  -20.4690   -3.7417 O   0  0  0  0  0  0  0  0  0  0  0  0
  -35.2690  -13.9026   -6.8428 C   0  0  0  0  0  0  0  0  0  0  0  0
  -34.8622  -12.7223   -7.2639 O   0  0  0  0  0  0  0  0  0  0  0  0
  -32.1462  -20.3457   -1.5401 C   0  0  0  0  0  0  0  0  0  0  0  0
  -29.9429  -17.7799    0.1193 O   0  0  0  0  0  0  0  0  0  0  0  0
  -31.3576  -19.6199   -0.5252 C   0  0  0  0  0  0  0  0  0  0  0  0
  -36.2331  -13.9927   -6.0937 O   0  0  0  0  0  0  0  0  0  0  0  0
  2  7  1  0
  2 11  1  0
  2 14  2  0
  3  7  1  0
  3  9  1  0
  3 12  2  0
  9 11  1  0
 11 13  2  3
  1  7  2  0
  1  8  1  0
  4  9  2  0
  4 10  1  0
  6 14  1  0
  6  8  2  0
  5 12  1  0
  5 10  2  0
 13 15  1  0
  6 16  1  0
 15 17  1  0
 16 18  1  0
 17 19  2  0
 15 20  2  0
 17 21  1  0
 19 22  1  0
 22 23  1  0
 21 24  2  0
 20 25  1  0
 22 26  2  0
 24 26  1  0
 16 27  2  0
 24 28  1  0
 25 29  1  0
 23 30  1  0
 29 31  1  0
 28 32  2  0
 19 33  1  0
 25 33  2  0
 32 34  1  0
 30 35  1  0
 33 35  1  0
 28 36  1  0
 32 37  1  0
 36 38  1  0
 30 39  1  0
 39 40  2  0
 36 41  2  0
 37 42  1  0
 37 43  2  0
 41 43  1  0
 39 44  1  0
M  END
$$$$

     RDKit          3D

 44 50  0  0  0  0  0  0  0  0999 V2000
  -28.1100  -21.1250  -11.7830 C   0  0  0  0  0  0  0  0  0  0  0  0
  -29.1380  -20.1340   -9.8150 C   0  0  0  0  0  0  0  0  0  0  0  0
  -26.8640  -19.6120  -10.1060 C   0  0  0  0  0  0  0  0  0  0  0  0
  -26.3470  -18.1740   -8.1970 C   0  0  0  0  0  0  0  0  0  0  0  0
  -24.6510  -18.7420   -9.8540 C   0  0  0  0  0  0  0  0  0  0  0  0
  -30.4600  -21.5050  -11.2460 C   0  0  0  0  0  0  0  0  0  0  0  0
  -28.0100  -20.3360  -10.6490 C   0  0  0  0  0  0  0  0  0  0  0  0
  -29.3460  -21.7100  -12.0780 C   0  0  0  0  0  0  0  0  0  0  0  0
  -27.2470  -18.9400   -8.9190 C   0  0  0  0  0  0  0  0  0  0  0  0
  -25.0380  -18.0800   -8.6770 C   0  0  0  0  0  0  0  0  0  0  0  0
  -28.6770  -19.2570   -8.7170 C   0  0  0  0  0  0  0  0  0  0  0  0
  -25.5650  -19.5150  -10.5780 C   0  0  0  0  0  0  0  0  0  0  0  0
  -29.5470  -18.7540   -7.5500 C   0  0  0  0  0  0  0  0  0  0  0  0
  -30.3630  -20.7110  -10.1010 C   0  0  0  0  0  0  0  0  0  0  0  0
  -30.2682  -17.6131   -7.7884 C   0  0  0  0  0  0  0  0  0  0  0  0
  -31.6351  -22.1828  -11.6616 C   0  0  0  0  0  0  0  0  0  0  0  0
  -31.0673  -17.2422   -6.6095 C   0  0  0  0  0  0  0  0  0  0  0  0
  -30.8352  -17.6300   -5.4844 C   0  0  0  0  0  0  0  0  0  0  0  0
  -31.8425  -17.5181   -4.4068 C   0  0  0  0  0  0  0  0  0  0  0  0
  -32.1307  -16.5826   -6.6226 C   0  0  0  0  0  0  0  0  0  0  0  0
  -31.6243  -18.1297   -3.1096 C   0  0  0  0  0  0  0  0  0  0  0  0
  -32.0763  -22.3605  -12.7922 O   0  0  0  0  0  0  0  0  0  0  0  0
  -30.9718  -17.4917   -2.1840 O   0  0  0  0  0  0  0  0  0  0  0  0
  -32.5117  -15.8566   -8.0492 C   0  0  0  0  0  0  0  0  0  0  0  0
  -32.8162  -21.4357  -10.9214 O   0  0  0  0  0  0  0  0  0  0  0  0
  -33.5668  -20.5980  -11.5867 C   0  0  0  0  0  0  0  0  0  0  0  0
  -33.4618  -20.7939  -13.0257 C   0  0  0  0  0  0  0  0  0  0  0  0
  -32.9237  -21.8861  -13.5897 C   0  0  0  0  0  0  0  0  0  0  0  0
  -32.2302  -19.3626   -2.8077 C   0  0  0  0  0  0  0  0  0  0  0  0
  -34.2623  -19.7305  -13.7568 O   0  0  0  0  0  0  0  0  0  0  0  0
  -30.6238  -16.9835   -9.0668 C   0  0  0  0  0  0  0  0  0  0  0  0
  -34.4509  -19.9595  -10.9429 C   0  0  0  0  0  0  0  0  0  0  0  0
  -32.9494  -16.1998   -5.5422 C   0  0  0  0  0  0  0  0  0  0  0  0
  -34.1499  -15.3026   -5.7909 O   0  0  0  0  0  0  0  0  0  0  0  0
  -33.5648  -15.0267   -8.2113 O   0  0  0  0  0  0  0  0  0  0  0  0
  -32.5447  -20.3608   -3.7845 O   0  0  0  0  0  0  0  0  0  0  0  0
  -32.4976  -19.9315   -1.6673 O   0  0  0  0  0  0  0  0  0  0  0  0
  -35.0372  -18.9212  -13.0126 C   0  0  0  0  0  0  0  0  0  0  0  0
  -35.1097  -18.8441  -11.6758 C   0  0  0  0  0  0  0  0  0  0  0  0
  -32.8843  -16.6638   -4.4062 C   0  0  0  0  0  0  0  0  0  0  0  0
  -31.5806  -16.1245   -9.2072 C   0  0  0  0  0  0  0  0  0  0  0  0
  -31.9490  -23.4874  -10.8392 C   0  0  0  0  0  0  0  0  0  0  0  0
  -33.0865  -22.2228  -14.7977 O   0  0  0  0  0  0  0  0  0  0  0  0
  -35.6327  -18.0075  -13.9133 O   0  0  0  0  0  0  0  0  0  0  0  0
  2  7  1  0
  2 11  1  0
  2 14  2  0
  3  7  1  0
  3  9  1  0
  3 12  2  0
  9 11  1  0
 11 13  2  3
  1  7  2  0
  1  8  1  0
  4  9  2  0
  4 10  1  0
  6 14  1  0
  6  8  2  0
  5 12  1  0
  5 10  2  0
 13 15  1  0
  6 16  1  0
 15 17  1  0
 17 18  1  0
 18 19  2  0
 17 20  2  0
 19 21  1  0
 16 22  1  0
 21 23  2  0
 20 24  1  0
 16 25  1  0
 25 26  1  0
 26 27  2  0
 22 28  1  0
 27 28  1  0
 21 29  1  0
 27 30  1  0
 15 31  2  0
 26 32  1  0
 20 33  1  0
 33 34  1  0
 24 35  1  0
 29 36  1  0
 29 37  2  0
 30 38  1  0
 32 39  1  0
 38 39  1  0
 19 40  1  0
 33 40  2  0
 24 41  2  0
 31 41  1  0
 16 42  1  0
 28 43  2  0
 38 44  2  0
M  END
$$$$

     RDKit          3D

 44 50  0  0  0  0  0  0  0  0999 V2000
  -28.1100  -21.1250  -11.7830 C   0  0  0  0  0  0  0  0  0  0  0  0
  -29.1380  -20.1340   -9.8150 C   0  0  0  0  0  0  0  0  0  0  0  0
  -26.8640  -19.6120  -10.1060 C   0  0  0  0  0  0  0  0  0  0  0  0
  -26.3470  -18.1740   -8.1970 C   0  0  0  0  0  0  0  0  0  0  0  0
  -24.6510  -18.7420   -9.8540 C   0  0  0  0  0  0  0  0  0  0  0  0
  -30.4600  -21.5050  -11.2460 C   0  0  0  0  0  0  0  0  0  0  0  0
  -28.0100  -20.3360  -10.6490 C   0  0  0  0  0  0  0  0  0  0  0  0
  -29.3460  -21.7100  -12.0780 C   0  0  0  0  0  0  0  0  0  0  0  0
  -27.2470  -18.9400   -8.9190 C   0  0  0  0  0  0  0  0  0  0  0  0
  -25.0380  -18.0800   -8.6770 C   0  0  0  0  0  0  0  0  0  0  0  0
  -28.6770  -19.2570   -8.7170 C   0  0  0  0  0  0  0  0  0  0  0  0
  -25.5650  -19.5150  -10.5780 C   0  0  0  0  0  0  0  0  0  0  0  0
  -29.5470  -18.7540   -7.5500 C   0  0  0  0  0  0  0  0  0  0  0  0
  -30.3630  -20.7110  -10.1010 C   0  0  0  0  0  0  0  0  0  0  0  0
  -30.2682  -17.6131   -7.7884 C   0  0  0  0  0  0  0  0  0  0  0  0
  -31.6351  -22.1828  -11.6616 C   0  0  0  0  0  0  0  0  0  0  0  0
  -31.0673  -17.2422   -6.6095 C   0  0  0  0  0  0  0  0  0  0  0  0
  -30.8352  -17.6300   -5.4844 C   0  0  0  0  0  0  0  0  0  0  0  0
  -31.8425  -17.5181   -4.4068 C   0  0  0  0  0  0  0  0  0  0  0  0
  -32.1307  -16.5826   -6.6226 C   0  0  0  0  0  0  0  0  0  0  0  0
  -31.6243  -18.1297   -3.1096 C   0  0  0  0  0  0  0  0  0  0  0  0
  -32.0763  -22.3605  -12.7922 O   0  0  0  0  0  0  0  0  0  0  0  0
  -30.9718  -17.4917   -2.1840 O   0  0  0  0  0  0  0  0  0  0  0  0
  -32.5117  -15.8566   -8.0492 C   0  0  0  0  0  0  0  0  0  0  0  0
  -32.8162  -21.4357  -10.9214 O   0  0  0  0  0  0  0  0  0  0  0  0
  -33.5668  -20.5980  -11.5867 C   0  0  0  0  0  0  0  0  0  0  0  0
  -33.4618  -20.7939  -13.0257 C   0  0  0  0  0  0  0  0  0  0  0  0
  -32.9237  -21.8861  -13.5897 C   0  0  0  0  0  0  0  0  0  0  0  0
  -32.2302  -19.3626   -2.8077 C   0  0  0  0  0  0  0  0  0  0  0  0
  -34.2623  -19.7305  -13.7568 O   0  0  0  0  0  0  0  0  0  0  0  0
  -30.7976  -17.1302   -9.0780 C   0  0  0  0  0  0  0  0  0  0  0  0
  -34.4497  -19.9542  -10.9418 C   0  0  0  0  0  0  0  0  0  0  0  0
  -29.9727  -17.3337  -10.2231 O   0  0  0  0  0  0  0  0  0  0  0  0
  -32.8782  -16.1853   -5.4900 C   0  0  0  0  0  0  0  0  0  0  0  0
  -34.0802  -15.2389   -5.7369 O   0  0  0  0  0  0  0  0  0  0  0  0
  -32.9201  -16.7662   -4.4703 C   0  0  0  0  0  0  0  0  0  0  0  0
  -32.5171  -19.6936   -1.5691 O   0  0  0  0  0  0  0  0  0  0  0  0
  -33.0115  -22.2946  -14.8224 O   0  0  0  0  0  0  0  0  0  0  0  0
  -31.6864  -23.5448  -10.8763 C   0  0  0  0  0  0  0  0  0  0  0  0
  -32.4531  -20.2693   -3.8268 N   0  0  0  0  0  0  0  0  0  0  0  0
  -34.9669  -18.9461  -12.9377 C   0  0  0  0  0  0  0  0  0  0  0  0
  -35.0708  -18.8444  -11.6492 C   0  0  0  0  0  0  0  0  0  0  0  0
  -31.8842  -16.1607   -9.0774 C   0  0  0  0  0  0  0  0  0  0  0  0
  -34.5573  -19.7635   -9.6275 O   0  0  0  0  0  0  0  0  0  0  0  0
  2  7  1  0
  2 11  1  0
  2 14  2  0
  3  7  1  0
  3  9  1  0
  3 12  2  0
  9 11  1  0
 11 13  2  3
  1  7  2  0
  1  8  1  0
  4  9  2  0
  4 10  1  0
  6 14  1  0
  6  8  2  0
  5 12  1  0
  5 10  2  0
 13 15  1  0
  6 16  1  0
 15 17  1  0
 17 18  1  0
 18 19  2  0
 17 20  2  0
 19 21  1  0
 16 22  1  0
 21 23  2  0
 20 24  1  0
 16 25  1  0
 25 26  1  0
 26 27  2  0
 22 28  1  0
 27 28  1  0
 21 29  1  0
 27 30  1  0
 15 31  2  0
 26 32  1  0
 31 33  1  0
 20 34  1  0
 34 35  1  0
 19 36  1  0
 34 36  2  0
 29 37  2  0
 28 38  2  0
 16 39  1  0
 29 40  1  0
 30 41  1  0
 32 42  1  0
 41 42  2  0
 24 43  2  0
 31 43  1  0
 32 44  2  0
M  END
$$$$

     RDKit          3D

 45 51  0  0  0  0  0  0  0  0999 V2000
  -28.1100  -21.1250  -11.7830 C   0  0  0  0  0  0  0  0  0  0  0  0
  -29.1380  -20.1340   -9.8150 C   0  0  0  0  0  0  0  0  0  0  0  0
  -26.8640  -19.6120  -10.1060 C   0  0  0  0  0  0  0  0  0  0  0  0
  -26.3470  -18.1740   -8.1970 C   0  0  0  0  0  0  0  0  0  0  0  0
  -24.6510  -18.7420   -9.8540 C   0  0  0  0  0  0  0  0  0  0  0  0
  -30.4600  -21.5050  -11.2460 C   0  0  0  0  0  0  0  0  0  0  0  0
  -28.0100  -20.3360  -10.6490 C   0  0  0  0  0  0  0  0  0  0  0  0
  -29.3460  -21.7100  -12.0780 C   0  0  0  0  0  0  0  0  0  0  0  0
  -27.2470  -18.9400   -8.9190 C   0  0  0  0  0  0  0  0  0  0  0  0
  -25.0380  -18.0800   -8.6770 C   0  0  0  0  0  0  0  0  0  0  0  0
  -28.6770  -19.2570   -8.7170 C   0  0  0  0  0  0  0  0  0  0  0  0
  -25.5650  -19.5150  -10.5780 C   0  0  0  0  0  0  0  0  0  0  0  0
  -29.5470  -18.7540   -7.5500 C   0  0  0  0  0  0  0  0  0  0  0  0
  -30.3630  -20.7110  -10.1010 C   0  0  0  0  0  0  0  0  0  0  0  0
  -30.2682  -17.6131   -7.7884 C   0  0  0  0  0  0  0  0  0  0  0  0
  -31.6351  -22.1828  -11.6616 C   0  0  0  0  0  0  0  0  0  0  0  0
  -31.0673  -17.2422   -6.6095 C   0  0  0  0  0  0  0  0  0  0  0  0
  -30.8352  -17.6300   -5.4844 C   0  0  0  0  0  0  0  0  0  0  0  0
  -31.8425  -17.5181   -4.4068 C   0  0  0  0  0  0  0  0  0  0  0  0
  -32.1307  -16.5826   -6.6226 C   0  0  0  0  0  0  0  0  0  0  0  0
  -31.6243  -18.1297   -3.1096 C   0  0  0  0  0  0  0  0  0  0  0  0
  -32.0763  -22.3605  -12.7922 O   0  0  0  0  0  0  0  0  0  0  0  0
  -30.9718  -17.4917   -2.1840 O   0  0  0  0  0  0  0  0  0  0  0  0
  -32.5117  -15.8566   -8.0492 C   0  0  0  0  0  0  0  0  0  0  0  0
  -32.8162  -21.4357  -10.9214 O   0  0  0  0  0  0  0  0  0  0  0  0
  -33.5668  -20.5980  -11.5867 C   0  0  0  0  0  0  0  0  0  0  0  0
  -33.4618  -20.7939  -13.0257 C   0  0  0  0  0  0  0  0  0  0  0  0
  -32.9237  -21.8861  -13.5897 C   0  0  0  0  0  0  0  0  0  0  0  0
  -32.2302  -19.3626   -2.8077 C   0  0  0  0  0  0  0  0  0  0  0  0
  -34.2623  -19.7305  -13.7568 O   0  0  0  0  0  0  0  0  0  0  0  0
  -33.5684  -15.0987   -8.1004 O   0  0  0  0  0  0  0  0  0  0  0  0
  -31.6220  -16.0021   -9.0396 N   0  0  0  0  0  0  0  0  0  0  0  0
  -32.9807  -16.9255   -4.6781 C   0  0  0  0  0  0  0  0  0  0  0  0
  -32.4051  -19.6842   -1.5759 O   0  0  0  0  0  0  0  0  0  0  0  0
  -31.8681  -15.3531  -10.2297 C   0  0  0  0  0  0  0  0  0  0  0  0
  -32.6533  -20.1873   -3.8056 N   0  0  0  0  0  0  0  0  0  0  0  0
  -33.9865  -16.7525   -3.6239 C   0  0  0  0  0  0  0  0  0  0  0  0
  -31.9645  -23.4194  -10.8922 F   0  0  0  0  0  0  0  0  0  0  0  0
  -34.7825  -18.7619  -12.9698 C   0  0  0  0  0  0  0  0  0  0  0  0
  -33.2051  -16.2688   -5.8646 C   0  0  0  0  0  0  0  0  0  0  0  0
  -35.2882  -17.7114  -13.5898 O   0  0  0  0  0  0  0  0  0  0  0  0
  -30.4602  -16.8736   -8.9387 C   0  0  0  0  0  0  0  0  0  0  0  0
  -32.0605  -16.0791  -11.3606 C   0  0  0  0  0  0  0  0  0  0  0  0
  -33.0018  -22.3037  -14.7503 O   0  0  0  0  0  0  0  0  0  0  0  0
  -34.6269  -18.9968  -11.5633 C   0  0  0  0  0  0  0  0  0  0  0  0
  2  7  1  0
  2 11  1  0
  2 14  2  0
  3  7  1  0
  3  9  1  0
  3 12  2  0
  9 11  1  0
 11 13  2  3
  1  7  2  0
  1  8  1  0
  4  9  2  0
  4 10  1  0
  6 14  1  0
  6  8  2  0
  5 12  1  0
  5 10  2  0
 13 15  1  0
  6 16  1  0
 15 17  1  0
 17 18  1  0
 18 19  2  0
 17 20  2  0
 19 21  1  0
 16 22  1  0
 21 23  2  0
 20 24  1  0
 16 25  1  0
 25 26  1  0
 26 27  2  0
 22 28  1  0
 27 28  1  0
 21 29  1  0
 27 30  1  0
 24 31  2  0
 24 32  1  0
 19 33  1  0
 29 34  2  0
 32 35  1  0
 29 36  1  0
 33 37  1  0
 16 38  1  0
 30 39  1  0
 20 40  1  0
 33 40  2  0
 39 41  2  0
 15 42  1  0
 32 42  1  0
 35 43  1  0
 28 44  2  0
 26 45  1  0
 39 45  1  0
M  END
$$$$

     RDKit          3D

 45 50  0  0  0  0  0  0  0  0999 V2000
  -28.1100  -21.1250  -11.7830 C   0  0  0  0  0  0  0  0  0  0  0  0
  -29.1380  -20.1340   -9.8150 C   0  0  0  0  0  0  0  0  0  0  0  0
  -26.8640  -19.6120  -10.1060 C   0  0  0  0  0  0  0  0  0  0  0  0
  -26.3470  -18.1740   -8.1970 C   0  0  0  0  0  0  0  0  0  0  0  0
  -24.6510  -18.7420   -9.8540 C   0  0  0  0  0  0  0  0  0  0  0  0
  -30.4600  -21.5050  -11.2460 C   0  0  0  0  0  0  0  0  0  0  0  0
  -28.0100  -20.3360  -10.6490 C   0  0  0  0  0  0  0  0  0  0  0  0
  -29.3460  -21.7100  -12.0780 C   0  0  0  0  0  0  0  0  0  0  0  0
  -27.2470  -18.9400   -8.9190 C   0  0  0  0  0  0  0  0  0  0  0  0
  -25.0380  -18.0800   -8.6770 C   0  0  0  0  0  0  0  0  0  0  0  0
  -28.6770  -19.2570   -8.7170 C   0  0  0  0  0  0  0  0  0  0  0  0
  -25.5650  -19.5150  -10.5780 C   0  0  0  0  0  0  0  0  0  0  0  0
  -29.5470  -18.7540   -7.5500 C   0  0  0  0  0  0  0  0  0  0  0  0
  -30.3630  -20.7110  -10.1010 C   0  0  0  0  0  0  0  0  0  0  0  0
  -31.6372  -22.1895  -11.6585 N   0  0  0  0  0  0  0  0  0  0  0  0
  -30.2571  -17.6003   -7.7868 C   0  0  0  0  0  0  0  0  0  0  0  0
  -31.0594  -17.2358   -6.6100 C   0  0  0  0  0  0  0  0  0  0  0  0
  -32.1858  -16.7350   -6.5482 C   0  0  0  0  0  0  0  0  0  0  0  0
  -30.4666  -16.8425   -8.5780 C   0  0  0  0  0  0  0  0  0  0  0  0
  -30.9060  -18.0473   -5.1963 C   0  0  0  0  0  0  0  0  0  0  0  0
  -31.6657  -23.1435  -12.5686 C   0  0  0  0  0  0  0  0  0  0  0  0
  -31.7940  -17.7755   -4.2400 C   0  0  0  0  0  0  0  0  0  0  0  0
  -33.2340  -16.6169   -5.7193 C   0  0  0  0  0  0  0  0  0  0  0  0
  -32.7521  -21.2022  -11.9255 C   0  0  0  0  0  0  0  0  0  0  0  0
  -34.3931  -15.8325   -5.9756 O   0  0  0  0  0  0  0  0  0  0  0  0
  -33.2098  -17.2356   -4.4846 C   0  0  0  0  0  0  0  0  0  0  0  0
  -33.1546  -20.7649  -12.9870 O   0  0  0  0  0  0  0  0  0  0  0  0
  -33.1935  -20.4638  -10.8726 O   0  0  0  0  0  0  0  0  0  0  0  0
  -33.7845  -19.5207  -13.2101 C   0  0  0  0  0  0  0  0  0  0  0  0
  -34.6658  -19.5273  -14.2459 C   0  0  0  0  0  0  0  0  0  0  0  0
  -33.1444  -18.4334  -12.9289 C   0  0  0  0  0  0  0  0  0  0  0  0
  -31.0921  -16.8965   -3.2458 C   0  0  0  0  0  0  0  0  0  0  0  0
  -30.5115  -15.8157   -3.4676 O   0  0  0  0  0  0  0  0  0  0  0  0
  -29.5350  -16.7743   -9.7654 C   0  0  0  0  0  0  0  0  0  0  0  0
  -31.2869  -15.6839   -8.4008 C   0  0  0  0  0  0  0  0  0  0  0  0
  -32.1974  -19.1220   -3.5348 C   0  0  0  0  0  0  0  0  0  0  0  0
  -31.7977  -19.3759   -2.3534 O   0  0  0  0  0  0  0  0  0  0  0  0
  -31.1556  -17.1065   -1.8774 O   0  0  0  0  0  0  0  0  0  0  0  0
  -32.0053  -18.4008  -11.9357 O   0  0  0  0  0  0  0  0  0  0  0  0
  -32.7778  -19.9398   -4.2843 N   0  0  0  0  0  0  0  0  0  0  0  0
  -31.3200  -14.6888   -9.6377 O   0  0  0  0  0  0  0  0  0  0  0  0
  -35.2840  -18.3662  -14.6889 C   0  0  0  0  0  0  0  0  0  0  0  0
  -32.3605  -15.6446   -7.6993 C   0  0  0  0  0  0  0  0  0  0  0  0
  -33.6998  -17.1676  -13.4144 C   0  0  0  0  0  0  0  0  0  0  0  0
  -34.7217  -17.1629  -14.2750 C   0  0  0  0  0  0  0  0  0  0  0  0
  2  7  1  0
  2 11  1  0
  2 14  2  0
  3  7  1  0
  3  9  1  0
  3 12  2  0
  9 11  1  0
 11 13  2  3
  1  7  2  0
  1  8  1  0
  4  9  2  0
  4 10  1  0
  6 14  1  0
  6  8  2  0
  5 12  1  0
  5 10  2  0
  6 15  1  0
 13 16  1  0
 16 17  1  0
 17 18  2  0
 16 19  2  0
 17 20  1  0
 15 21  1  0
 20 22  1  0
 18 23  1  0
 15 24  1  0
 23 25  2  0
 22 26  1  0
 23 26  1  0
 24 27  1  0
 24 28  2  0
 27 29  1  0
 29 30  1  0
 29 31  2  0
 22 32  1  0
 32 33  2  0
 19 34  1  0
 19 35  1  0
 22 36  1  0
 36 37  2  0
 32 38  1  0
 31 39  1  0
 36 40  1  0
 35 41  1  0
 30 42  2  0
 18 43  1  0
 35 43  2  0
 31 44  1  0
 42 45  1  0
 44 45  2  0
M  END
$$$$

     RDKit          3D

 45 51  0  0  0  0  0  0  0  0999 V2000
  -28.1100  -21.1250  -11.7830 C   0  0  0  0  0  0  0  0  0  0  0  0
  -29.1380  -20.1340   -9.8150 C   0  0  0  0  0  0  0  0  0  0  0  0
  -26.8640  -19.6120  -10.1060 C   0  0  0  0  0  0  0  0  0  0  0  0
  -26.3470  -18.1740   -8.1970 C   0  0  0  0  0  0  0  0  0  0  0  0
  -24.6510  -18.7420   -9.8540 C   0  0  0  0  0  0  0  0  0  0  0  0
  -30.4600  -21.5050  -11.2460 C   0  0  0  0  0  0  0  0  0  0  0  0
  -28.0100  -20.3360  -10.6490 C   0  0  0  0  0  0  0  0  0  0  0  0
  -29.3460  -21.7100  -12.0780 C   0  0  0  0  0  0  0  0  0  0  0  0
  -27.2470  -18.9400   -8.9190 C   0  0  0  0  0  0  0  0  0  0  0  0
  -25.0380  -18.0800   -8.6770 C   0  0  0  0  0  0  0  0  0  0  0  0
  -28.6770  -19.2570   -8.7170 C   0  0  0  0  0  0  0  0  0  0  0  0
  -25.5650  -19.5150  -10.5780 C   0  0  0  0  0  0  0  0  0  0  0  0
  -29.5470  -18.7540   -7.5500 C   0  0  0  0  0  0  0  0  0  0  0  0
  -30.3630  -20.7110  -10.1010 C   0  0  0  0  0  0  0  0  0  0  0  0
  -31.6372  -22.1895  -11.6585 N   0  0  0  0  0  0  0  0  0  0  0  0
  -30.2571  -17.6003   -7.7868 C   0  0  0  0  0  0  0  0  0  0  0  0
  -31.0594  -17.2358   -6.6100 C   0  0  0  0  0  0  0  0  0  0  0  0
  -32.1858  -16.7350   -6.5482 C   0  0  0  0  0  0  0  0  0  0  0  0
  -30.4666  -16.8425   -8.5780 C   0  0  0  0  0  0  0  0  0  0  0  0
  -30.9060  -18.0473   -5.1963 C   0  0  0  0  0  0  0  0  0  0  0  0
  -31.6657  -23.1435  -12.5686 C   0  0  0  0  0  0  0  0  0  0  0  0
  -31.7940  -17.7755   -4.2400 C   0  0  0  0  0  0  0  0  0  0  0  0
  -33.2340  -16.6169   -5.7193 C   0  0  0  0  0  0  0  0  0  0  0  0
  -32.7521  -21.2022  -11.9255 C   0  0  0  0  0  0  0  0  0  0  0  0
  -34.3931  -15.8325   -5.9756 O   0  0  0  0  0  0  0  0  0  0  0  0
  -33.2098  -17.2356   -4.4846 C   0  0  0  0  0  0  0  0  0  0  0  0
  -33.1546  -20.7649  -12.9870 O   0  0  0  0  0  0  0  0  0  0  0  0
  -33.1935  -20.4638  -10.8726 O   0  0  0  0  0  0  0  0  0  0  0  0
  -33.7845  -19.5207  -13.2101 C   0  0  0  0  0  0  0  0  0  0  0  0
  -34.6658  -19.5273  -14.2459 C   0  0  0  0  0  0  0  0  0  0  0  0
  -33.1444  -18.4334  -12.9289 C   0  0  0  0  0  0  0  0  0  0  0  0
  -31.0921  -16.8965   -3.2458 C   0  0  0  0  0  0  0  0  0  0  0  0
  -30.5115  -15.8157   -3.4676 O   0  0  0  0  0  0  0  0  0  0  0  0
  -33.6320  -17.1449  -13.3736 C   0  0  0  0  0  0  0  0  0  0  0  0
  -32.3845  -15.7855   -7.8284 C   0  0  0  0  0  0  0  0  0  0  0  0
  -32.2471  -18.8060   -3.3223 N   0  0  0  0  0  0  0  0  0  0  0  0
  -31.1548  -17.3350   -2.0080 O   0  0  0  0  0  0  0  0  0  0  0  0
  -35.2496  -20.7736  -14.7235 O   0  0  0  0  0  0  0  0  0  0  0  0
  -31.8511  -18.7561   -2.0303 C   0  0  0  0  0  0  0  0  0  0  0  0
  -32.8154  -20.0221   -3.8346 C   0  0  0  0  0  0  0  0  0  0  0  0
  -31.4963  -15.8764   -8.8349 C   0  0  0  0  0  0  0  0  0  0  0  0
  -32.8814  -21.1197   -3.2381 O   0  0  0  0  0  0  0  0  0  0  0  0
  -33.7620  -19.8016   -4.8077 O   0  0  0  0  0  0  0  0  0  0  0  0
  -34.6502  -17.0368  -14.2143 C   0  0  0  0  0  0  0  0  0  0  0  0
  -35.2379  -18.2678  -14.7204 C   0  0  0  0  0  0  0  0  0  0  0  0
  2  7  1  0
  2 11  1  0
  2 14  2  0
  3  7  1  0
  3  9  1  0
  3 12  2  0
  9 11  1  0
 11 13  2  3
  1  7  2  0
  1  8  1  0
  4  9  2  0
  4 10  1  0
  6 14  1  0
  6  8  2  0
  5 12  1  0
  5 10  2  0
  6 15  1  0
 13 16  1  0
 16 17  1  0
 17 18  2  0
 16 19  2  0
 17 20  1  0
 15 21  1  0
 20 22  1  0
 18 23  1  0
 15 24  1  0
 23 25  2  0
 22 26  1  0
 23 26  1  0
 24 27  1  0
 24 28  2  0
 27 29  1  0
 29 30  1  0
 29 31  2  0
 22 32  1  0
 32 33  2  0
 31 34  1  0
 18 35  1  0
 22 36  1  0
 32 37  1  0
 30 38  1  0
 36 39  1  0
 37 39  1  0
 36 40  1  0
 19 41  1  0
 35 41  2  0
 40 42  2  0
 40 43  1  0
 34 44  2  0
 30 45  2  0
 44 45  1  0
M  END
$$$$

     RDKit          3D

 45 51  0  0  0  0  0  0  0  0999 V2000
  -28.1100  -21.1250  -11.7830 C   0  0  0  0  0  0  0  0  0  0  0  0
  -29.1380  -20.1340   -9.8150 C   0  0  0  0  0  0  0  0  0  0  0  0
  -26.8640  -19.6120  -10.1060 C   0  0  0  0  0  0  0  0  0  0  0  0
  -26.3470  -18.1740   -8.1970 C   0  0  0  0  0  0  0  0  0  0  0  0
  -24.6510  -18.7420   -9.8540 C   0  0  0  0  0  0  0  0  0  0  0  0
  -30.4600  -21.5050  -11.2460 C   0  0  0  0  0  0  0  0  0  0  0  0
  -28.0100  -20.3360  -10.6490 C   0  0  0  0  0  0  0  0  0  0  0  0
  -29.3460  -21.7100  -12.0780 C   0  0  0  0  0  0  0  0  0  0  0  0
  -27.2470  -18.9400   -8.9190 C   0  0  0  0  0  0  0  0  0  0  0  0
  -25.0380  -18.0800   -8.6770 C   0  0  0  0  0  0  0  0  0  0  0  0
  -28.6770  -19.2570   -8.7170 C   0  0  0  0  0  0  0  0  0  0  0  0
  -25.5650  -19.5150  -10.5780 C   0  0  0  0  0  0  0  0  0  0  0  0
  -29.5470  -18.7540   -7.5500 C   0  0  0  0  0  0  0  0  0  0  0  0
  -30.3630  -20.7110  -10.1010 C   0  0  0  0  0  0  0  0  0  0  0  0
  -30.2682  -17.6131   -7.7884 C   0  0  0  0  0  0  0  0  0  0  0  0
  -31.6351  -22.1828  -11.6616 C   0  0  0  0  0  0  0  0  0  0  0  0
  -31.0673  -17.2422   -6.6095 C   0  0  0  0  0  0  0  0  0  0  0  0
  -30.8352  -17.6300   -5.4844 C   0  0  0  0  0  0  0  0  0  0  0  0
  -31.8425  -17.5181   -4.4068 C   0  0  0  0  0  0  0  0  0  0  0  0
  -32.1307  -16.5826   -6.6226 C   0  0  0  0  0  0  0  0  0  0  0  0
  -31.6243  -18.1297   -3.1096 C   0  0  0  0  0  0  0  0  0  0  0  0
  -32.0763  -22.3605  -12.7922 O   0  0  0  0  0  0  0  0  0  0  0  0
  -30.9718  -17.4917   -2.1840 O   0  0  0  0  0  0  0  0  0  0  0  0
  -32.5117  -15.8566   -8.0492 C   0  0  0  0  0  0  0  0  0  0  0  0
  -32.8162  -21.4357  -10.9214 O   0  0  0  0  0  0  0  0  0  0  0  0
  -33.5668  -20.5980  -11.5867 C   0  0  0  0  0  0  0  0  0  0  0  0
  -33.4618  -20.7939  -13.0257 C   0  0  0  0  0  0  0  0  0  0  0  0
  -32.9237  -21.8861  -13.5897 C   0  0  0  0  0  0  0  0  0  0  0  0
  -32.2302  -19.3626   -2.8077 C   0  0  0  0  0  0  0  0  0  0  0  0
  -34.2623  -19.7305  -13.7568 O   0  0  0  0  0  0  0  0  0  0  0  0
  -30.7976  -17.1302   -9.0780 C   0  0  0  0  0  0  0  0  0  0  0  0
  -34.4497  -19.9542  -10.9418 C   0  0  0  0  0  0  0  0  0  0  0  0
  -29.9727  -17.3337  -10.2231 O   0  0  0  0  0  0  0  0  0  0  0  0
  -32.8782  -16.1853   -5.4900 C   0  0  0  0  0  0  0  0  0  0  0  0
  -34.0802  -15.2389   -5.7369 O   0  0  0  0  0  0  0  0  0  0  0  0
  -32.9201  -16.7662   -4.4703 C   0  0  0  0  0  0  0  0  0  0  0  0
  -32.5171  -19.6936   -1.5691 O   0  0  0  0  0  0  0  0  0  0  0  0
  -33.0115  -22.2946  -14.8224 O   0  0  0  0  0  0  0  0  0  0  0  0
  -32.4524  -20.2698   -3.8271 N   0  0  0  0  0  0  0  0  0  0  0  0
  -34.2799  -19.7965   -9.6909 O   0  0  0  0  0  0  0  0  0  0  0  0
  -34.5338  -18.8812  -13.1104 C   0  0  0  0  0  0  0  0  0  0  0  0
  -31.7725  -23.5176  -10.9054 C   0  0  0  0  0  0  0  0  0  0  0  0
  -35.0411  -17.7382  -14.0346 O   0  0  0  0  0  0  0  0  0  0  0  0
  -34.8702  -18.6987  -11.8109 C   0  0  0  0  0  0  0  0  0  0  0  0
  -31.7632  -16.1714   -9.1406 C   0  0  0  0  0  0  0  0  0  0  0  0
  2  7  1  0
  2 11  1  0
  2 14  2  0
  3  7  1  0
  3  9  1  0
  3 12  2  0
  9 11  1  0
 11 13  2  3
  1  7  2  0
  1  8  1  0
  4  9  2  0
  4 10  1  0
  6 14  1  0
  6  8  2  0
  5 12  1  0
  5 10  2  0
 13 15  1  0
  6 16  1  0
 15 17  1  0
 17 18  1  0
 18 19  2  0
 17 20  2  0
 19 21  1  0
 16 22  1  0
 21 23  2  0
 20 24  1  0
 16 25  1  0
 25 26  1  0
 26 27  2  0
 22 28  1  0
 27 28  1  0
 21 29  1  0
 27 30  1  0
 15 31  2  0
 26 32  1  0
 31 33  1  0
 20 34  1  0
 34 35  1  0
 19 36  1  0
 34 36  2  0
 29 37  2  0
 28 38  2  0
 29 39  1  0
 32 40  1  0
 30 41  1  0
 16 42  1  0
 41 43  2  0
 32 44  2  0
 41 44  1  0
 24 45  2  0
 31 45  1  0
M  END
$$$$

     RDKit          3D

 45 52  0  0  0  0  0  0  0  0999 V2000
  -28.1100  -21.1250  -11.7830 C   0  0  0  0  0  0  0  0  0  0  0  0
  -29.1380  -20.1340   -9.8150 C   0  0  0  0  0  0  0  0  0  0  0  0
  -26.8640  -19.6120  -10.1060 C   0  0  0  0  0  0  0  0  0  0  0  0
  -26.3470  -18.1740   -8.1970 C   0  0  0  0  0  0  0  0  0  0  0  0
  -24.6510  -18.7420   -9.8540 C   0  0  0  0  0  0  0  0  0  0  0  0
  -30.4600  -21.5050  -11.2460 C   0  0  0  0  0  0  0  0  0  0  0  0
  -28.0100  -20.3360  -10.6490 C   0  0  0  0  0  0  0  0  0  0  0  0
  -29.3460  -21.7100  -12.0780 C   0  0  0  0  0  0  0  0  0  0  0  0
  -27.2470  -18.9400   -8.9190 C   0  0  0  0  0  0  0  0  0  0  0  0
  -25.0380  -18.0800   -8.6770 C   0  0  0  0  0  0  0  0  0  0  0  0
  -28.6770  -19.2570   -8.7170 C   0  0  0  0  0  0  0  0  0  0  0  0
  -25.5650  -19.5150  -10.5780 C   0  0  0  0  0  0  0  0  0  0  0  0
  -29.5470  -18.7540   -7.5500 C   0  0  0  0  0  0  0  0  0  0  0  0
  -30.3630  -20.7110  -10.1010 C   0  0  0  0  0  0  0  0  0  0  0  0
  -30.2682  -17.6131   -7.7884 C   0  0  0  0  0  0  0  0  0  0  0  0
  -31.6351  -22.1828  -11.6616 C   0  0  0  0  0  0  0  0  0  0  0  0
  -31.0673  -17.2422   -6.6095 C   0  0  0  0  0  0  0  0  0  0  0  0
  -30.8352  -17.6300   -5.4844 C   0  0  0  0  0  0  0  0  0  0  0  0
  -31.8425  -17.5181   -4.4068 C   0  0  0  0  0  0  0  0  0  0  0  0
  -32.1307  -16.5826   -6.6226 C   0  0  0  0  0  0  0  0  0  0  0  0
  -31.6243  -18.1297   -3.1096 C   0  0  0  0  0  0  0  0  0  0  0  0
  -32.0763  -22.3605  -12.7922 O   0  0  0  0  0  0  0  0  0  0  0  0
  -30.9718  -17.4917   -2.1840 O   0  0  0  0  0  0  0  0  0  0  0  0
  -32.5117  -15.8566   -8.0492 C   0  0  0  0  0  0  0  0  0  0  0  0
  -32.8162  -21.4357  -10.9214 O   0  0  0  0  0  0  0  0  0  0  0  0
  -33.5668  -20.5980  -11.5867 C   0  0  0  0  0  0  0  0  0  0  0  0
  -33.4618  -20.7939  -13.0257 C   0  0  0  0  0  0  0  0  0  0  0  0
  -32.9237  -21.8861  -13.5897 C   0  0  0  0  0  0  0  0  0  0  0  0
  -32.2302  -19.3626   -2.8077 C   0  0  0  0  0  0  0  0  0  0  0  0
  -34.2623  -19.7305  -13.7568 O   0  0  0  0  0  0  0  0  0  0  0  0
  -30.6238  -16.9835   -9.0668 C   0  0  0  0  0  0  0  0  0  0  0  0
  -34.4509  -19.9595  -10.9429 C   0  0  0  0  0  0  0  0  0  0  0  0
  -29.7573  -17.1249  -10.1688 C   0  0  0  0  0  0  0  0  0  0  0  0
  -32.7052  -16.2684   -5.4002 S   0  0  0  0  0  0  0  0  0  0  0  0
  -31.6929  -16.1154   -9.1474 C   0  0  0  0  0  0  0  0  0  0  0  0
  -35.1533  -18.8871  -11.7472 C   0  0  0  0  0  0  0  0  0  0  0  0
  -34.7924  -18.8824  -12.9149 C   0  0  0  0  0  0  0  0  0  0  0  0
  -35.8096  -17.8627  -11.1262 C   0  0  0  0  0  0  0  0  0  0  0  0
  -35.5971  -17.7342  -13.6623 C   0  0  0  0  0  0  0  0  0  0  0  0
  -36.3980  -16.8062  -11.7160 C   0  0  0  0  0  0  0  0  0  0  0  0
  -36.2498  -16.7428  -13.0974 C   0  0  0  0  0  0  0  0  0  0  0  0
  -32.5195  -19.6757   -1.6395 O   0  0  0  0  0  0  0  0  0  0  0  0
  -31.9255  -23.4851  -10.8441 F   0  0  0  0  0  0  0  0  0  0  0  0
  -32.7021  -20.0954   -3.9000 O   0  0  0  0  0  0  0  0  0  0  0  0
  -33.0474  -22.2380  -14.8194 O   0  0  0  0  0  0  0  0  0  0  0  0
  2  7  1  0
  2 11  1  0
  2 14  2  0
  3  7  1  0
  3  9  1  0
  3 12  2  0
  9 11  1  0
 11 13  2  3
  1  7  2  0
  1  8  1  0
  4  9  2  0
  4 10  1  0
  6 14  1  0
  6  8  2  0
  5 12  1  0
  5 10  2  0
 13 15  1  0
  6 16  1  0
 15 17  1  0
 17 18  1  0
 18 19  2  0
 17 20  2  0
 19 21  1  0
 16 22  1  0
 21 23  2  0
 20 24  1  0
 16 25  1  0
 25 26  1  0
 26 27  2  0
 22 28  1  0
 27 28  1  0
 21 29  1  0
 27 30  1  0
 15 31  2  0
 26 32  1  0
 31 33  1  0
 19 34  1  0
 20 34  1  0
 24 35  2  0
 31 35  1  0
 32 36  1  0
 30 37  1  0
 36 37  1  0
 36 38  2  0
 37 39  2  0
 38 40  1  0
 39 41  1  0
 40 41  2  0
 29 42  2  0
 16 43  1  0
 29 44  1  0
 28 45  2  0
M  END
$$$$

     RDKit          3D

 45 51  0  0  0  0  0  0  0  0999 V2000
  -28.1100  -21.1250  -11.7830 C   0  0  0  0  0  0  0  0  0  0  0  0
  -29.1380  -20.1340   -9.8150 C   0  0  0  0  0  0  0  0  0  0  0  0
  -26.8640  -19.6120  -10.1060 C   0  0  0  0  0  0  0  0  0  0  0  0
  -26.3470  -18.1740   -8.1970 C   0  0  0  0  0  0  0  0  0  0  0  0
  -24.6510  -18.7420   -9.8540 C   0  0  0  0  0  0  0  0  0  0  0  0
  -30.4600  -21.5050  -11.2460 C   0  0  0  0  0  0  0  0  0  0  0  0
  -28.0100  -20.3360  -10.6490 C   0  0  0  0  0  0  0  0  0  0  0  0
  -29.3460  -21.7100  -12.0780 C   0  0  0  0  0  0  0  0  0  0  0  0
  -27.2470  -18.9400   -8.9190 C   0  0  0  0  0  0  0  0  0  0  0  0
  -25.0380  -18.0800   -8.6770 C   0  0  0  0  0  0  0  0  0  0  0  0
  -28.6770  -19.2570   -8.7170 C   0  0  0  0  0  0  0  0  0  0  0  0
  -25.5650  -19.5150  -10.5780 C   0  0  0  0  0  0  0  0  0  0  0  0
  -29.5470  -18.7540   -7.5500 C   0  0  0  0  0  0  0  0  0  0  0  0
  -30.3630  -20.7110  -10.1010 C   0  0  0  0  0  0  0  0  0  0  0  0
  -30.2682  -17.6131   -7.7884 C   0  0  0  0  0  0  0  0  0  0  0  0
  -31.6351  -22.1828  -11.6616 C   0  0  0  0  0  0  0  0  0  0  0  0
  -31.0673  -17.2422   -6.6095 C   0  0  0  0  0  0  0  0  0  0  0  0
  -30.8352  -17.6300   -5.4844 C   0  0  0  0  0  0  0  0  0  0  0  0
  -31.8425  -17.5181   -4.4068 C   0  0  0  0  0  0  0  0  0  0  0  0
  -32.1307  -16.5826   -6.6226 C   0  0  0  0  0  0  0  0  0  0  0  0
  -31.6243  -18.1297   -3.1096 C   0  0  0  0  0  0  0  0  0  0  0  0
  -32.0763  -22.3605  -12.7922 O   0  0  0  0  0  0  0  0  0  0  0  0
  -30.9718  -17.4917   -2.1840 O   0  0  0  0  0  0  0  0  0  0  0  0
  -32.5117  -15.8566   -8.0492 C   0  0  0  0  0  0  0  0  0  0  0  0
  -32.8162  -21.4357  -10.9214 O   0  0  0  0  0  0  0  0  0  0  0  0
  -33.5668  -20.5980  -11.5867 C   0  0  0  0  0  0  0  0  0  0  0  0
  -33.4618  -20.7939  -13.0257 C   0  0  0  0  0  0  0  0  0  0  0  0
  -32.9237  -21.8861  -13.5897 C   0  0  0  0  0  0  0  0  0  0  0  0
  -32.2302  -19.3626   -2.8077 C   0  0  0  0  0  0  0  0  0  0  0  0
  -34.2623  -19.7305  -13.7568 O   0  0  0  0  0  0  0  0  0  0  0  0
  -30.6238  -16.9835   -9.0668 C   0  0  0  0  0  0  0  0  0  0  0  0
  -34.4509  -19.9595  -10.9429 C   0  0  0  0  0  0  0  0  0  0  0  0
  -32.9494  -16.1998   -5.5422 C   0  0  0  0  0  0  0  0  0  0  0  0
  -34.1499  -15.3026   -5.7909 O   0  0  0  0  0  0  0  0  0  0  0  0
  -33.5648  -15.0267   -8.2113 O   0  0  0  0  0  0  0  0  0  0  0  0
  -32.5447  -20.3608   -3.7845 O   0  0  0  0  0  0  0  0  0  0  0  0
  -32.4976  -19.9315   -1.6673 O   0  0  0  0  0  0  0  0  0  0  0  0
  -35.0372  -18.9212  -13.0126 C   0  0  0  0  0  0  0  0  0  0  0  0
  -34.9213  -18.8752  -11.4833 C   0  0  0  0  0  0  0  0  0  0  0  0
  -31.6868  -16.1128   -9.1298 C   0  0  0  0  0  0  0  0  0  0  0  0
  -33.0514  -22.2140  -14.8022 O   0  0  0  0  0  0  0  0  0  0  0  0
  -35.0346  -17.6040  -13.7293 C   0  0  0  0  0  0  0  0  0  0  0  0
  -31.7019  -23.5779  -10.9124 C   0  0  0  0  0  0  0  0  0  0  0  0
  -32.8125  -16.6794   -4.4320 C   0  0  0  0  0  0  0  0  0  0  0  0
  -35.4877  -16.5410  -12.9927 O   0  0  0  0  0  0  0  0  0  0  0  0
  2  7  1  0
  2 11  1  0
  2 14  2  0
  3  7  1  0
  3  9  1  0
  3 12  2  0
  9 11  1  0
 11 13  2  3
  1  7  2  0
  1  8  1  0
  4  9  2  0
  4 10  1  0
  6 14  1  0
  6  8  2  0
  5 12  1  0
  5 10  2  0
 13 15  1  0
  6 16  1  0
 15 17  1  0
 17 18  1  0
 18 19  2  0
 17 20  2  0
 19 21  1  0
 16 22  1  0
 21 23  2  0
 20 24  1  0
 16 25  1  0
 25 26  1  0
 26 27  2  0
 22 28  1  0
 27 28  1  0
 21 29  1  0
 27 30  1  0
 15 31  2  0
 26 32  1  0
 20 33  1  0
 33 34  1  0
 24 35  1  0
 29 36  1  0
 29 37  2  0
 30 38  1  0
 32 39  1  0
 38 39  1  0
 24 40  2  0
 31 40  1  0
 28 41  2  0
 38 42  1  0
 16 43  1  0
 19 44  1  0
 33 44  2  0
 42 45  1  0
M  END
$$$$

     RDKit          3D

 45 51  0  0  0  0  0  0  0  0999 V2000
  -28.1100  -21.1250  -11.7830 C   0  0  0  0  0  0  0  0  0  0  0  0
  -29.1380  -20.1340   -9.8150 C   0  0  0  0  0  0  0  0  0  0  0  0
  -26.8640  -19.6120  -10.1060 C   0  0  0  0  0  0  0  0  0  0  0  0
  -26.3470  -18.1740   -8.1970 C   0  0  0  0  0  0  0  0  0  0  0  0
  -24.6510  -18.7420   -9.8540 C   0  0  0  0  0  0  0  0  0  0  0  0
  -30.4600  -21.5050  -11.2460 C   0  0  0  0  0  0  0  0  0  0  0  0
  -28.0100  -20.3360  -10.6490 C   0  0  0  0  0  0  0  0  0  0  0  0
  -29.3460  -21.7100  -12.0780 C   0  0  0  0  0  0  0  0  0  0  0  0
  -27.2470  -18.9400   -8.9190 C   0  0  0  0  0  0  0  0  0  0  0  0
  -25.0380  -18.0800   -8.6770 C   0  0  0  0  0  0  0  0  0  0  0  0
  -28.6770  -19.2570   -8.7170 C   0  0  0  0  0  0  0  0  0  0  0  0
  -25.5650  -19.5150  -10.5780 C   0  0  0  0  0  0  0  0  0  0  0  0
  -29.5470  -18.7540   -7.5500 C   0  0  0  0  0  0  0  0  0  0  0  0
  -30.3630  -20.7110  -10.1010 C   0  0  0  0  0  0  0  0  0  0  0  0
  -30.2682  -17.6131   -7.7884 C   0  0  0  0  0  0  0  0  0  0  0  0
  -31.6351  -22.1828  -11.6616 C   0  0  0  0  0  0  0  0  0  0  0  0
  -31.0673  -17.2422   -6.6095 C   0  0  0  0  0  0  0  0  0  0  0  0
  -30.8352  -17.6300   -5.4844 C   0  0  0  0  0  0  0  0  0  0  0  0
  -31.8425  -17.5181   -4.4068 C   0  0  0  0  0  0  0  0  0  0  0  0
  -32.1307  -16.5826   -6.6226 C   0  0  0  0  0  0  0  0  0  0  0  0
  -31.6243  -18.1297   -3.1096 C   0  0  0  0  0  0  0  0  0  0  0  0
  -32.0763  -22.3605  -12.7922 O   0  0  0  0  0  0  0  0  0  0  0  0
  -30.9718  -17.4917   -2.1840 O   0  0  0  0  0  0  0  0  0  0  0  0
  -32.5117  -15.8566   -8.0492 C   0  0  0  0  0  0  0  0  0  0  0  0
  -32.8162  -21.4357  -10.9214 O   0  0  0  0  0  0  0  0  0  0  0  0
  -33.5668  -20.5980  -11.5867 C   0  0  0  0  0  0  0  0  0  0  0  0
  -33.4618  -20.7939  -13.0257 C   0  0  0  0  0  0  0  0  0  0  0  0
  -32.9237  -21.8861  -13.5897 C   0  0  0  0  0  0  0  0  0  0  0  0
  -32.2302  -19.3626   -2.8077 C   0  0  0  0  0  0  0  0  0  0  0  0
  -34.2623  -19.7305  -13.7568 O   0  0  0  0  0  0  0  0  0  0  0  0
  -30.6238  -16.9835   -9.0668 C   0  0  0  0  0  0  0  0  0  0  0  0
  -34.4509  -19.9595  -10.9429 C   0  0  0  0  0  0  0  0  0  0  0  0
  -32.9494  -16.1998   -5.5422 C   0  0  0  0  0  0  0  0  0  0  0  0
  -34.1499  -15.3026   -5.7909 O   0  0  0  0  0  0  0  0  0  0  0  0
  -33.5648  -15.0267   -8.2113 O   0  0  0  0  0  0  0  0  0  0  0  0
  -32.5447  -20.3608   -3.7845 C   0  0  0  0  0  0  0  0  0  0  0  0
  -32.0315  -20.2370   -5.0024 O   0  0  0  0  0  0  0  0  0  0  0  0
  -35.1338  -18.8729  -11.7412 C   0  0  0  0  0  0  0  0  0  0  0  0
  -31.7588  -16.2383   -9.1612 C   0  0  0  0  0  0  0  0  0  0  0  0
  -33.2826  -21.2385   -3.6800 O   0  0  0  0  0  0  0  0  0  0  0  0
  -33.0231  -22.2643  -14.7830 O   0  0  0  0  0  0  0  0  0  0  0  0
  -34.7239  -18.8754  -12.9509 C   0  0  0  0  0  0  0  0  0  0  0  0
  -31.8012  -23.5402  -10.8953 C   0  0  0  0  0  0  0  0  0  0  0  0
  -32.8251  -16.7093   -4.4579 C   0  0  0  0  0  0  0  0  0  0  0  0
  -34.9495  -17.6960  -13.8197 O   0  0  0  0  0  0  0  0  0  0  0  0
  2  7  1  0
  2 11  1  0
  2 14  2  0
  3  7  1  0
  3  9  1  0
  3 12  2  0
  9 11  1  0
 11 13  2  3
  1  7  2  0
  1  8  1  0
  4  9  2  0
  4 10  1  0
  6 14  1  0
  6  8  2  0
  5 12  1  0
  5 10  2  0
 13 15  1  0
  6 16  1  0
 15 17  1  0
 17 18  1  0
 18 19  2  0
 17 20  2  0
 19 21  1  0
 16 22  1  0
 21 23  2  0
 20 24  1  0
 16 25  1  0
 25 26  1  0
 26 27  2  0
 22 28  1  0
 27 28  1  0
 21 29  1  0
 27 30  1  0
 15 31  2  0
 26 32  1  0
 20 33  1  0
 33 34  1  0
 24 35  1  0
 29 36  1  0
 36 37  1  0
 32 38  1  0
 24 39  2  0
 31 39  1  0
 36 40  2  0
 28 41  2  0
 30 42  1  0
 38 42  1  0
 16 43  1  0
 19 44  1  0
 33 44  2  0
 42 45  2  0
M  END
$$$$

     RDKit          3D

 46 52  0  0  0  0  0  0  0  0999 V2000
  -28.1100  -21.1250  -11.7830 C   0  0  0  0  0  0  0  0  0  0  0  0
  -29.1380  -20.1340   -9.8150 C   0  0  0  0  0  0  0  0  0  0  0  0
  -26.8640  -19.6120  -10.1060 C   0  0  0  0  0  0  0  0  0  0  0  0
  -26.3470  -18.1740   -8.1970 C   0  0  0  0  0  0  0  0  0  0  0  0
  -24.6510  -18.7420   -9.8540 C   0  0  0  0  0  0  0  0  0  0  0  0
  -30.4600  -21.5050  -11.2460 C   0  0  0  0  0  0  0  0  0  0  0  0
  -28.0100  -20.3360  -10.6490 C   0  0  0  0  0  0  0  0  0  0  0  0
  -29.3460  -21.7100  -12.0780 C   0  0  0  0  0  0  0  0  0  0  0  0
  -27.2470  -18.9400   -8.9190 C   0  0  0  0  0  0  0  0  0  0  0  0
  -25.0380  -18.0800   -8.6770 C   0  0  0  0  0  0  0  0  0  0  0  0
  -28.6770  -19.2570   -8.7170 C   0  0  0  0  0  0  0  0  0  0  0  0
  -25.5650  -19.5150  -10.5780 C   0  0  0  0  0  0  0  0  0  0  0  0
  -29.5470  -18.7540   -7.5500 C   0  0  0  0  0  0  0  0  0  0  0  0
  -30.3630  -20.7110  -10.1010 C   0  0  0  0  0  0  0  0  0  0  0  0
  -30.2682  -17.6131   -7.7884 C   0  0  0  0  0  0  0  0  0  0  0  0
  -31.6351  -22.1828  -11.6616 C   0  0  0  0  0  0  0  0  0  0  0  0
  -31.0673  -17.2422   -6.6095 C   0  0  0  0  0  0  0  0  0  0  0  0
  -30.8352  -17.6300   -5.4844 C   0  0  0  0  0  0  0  0  0  0  0  0
  -31.8425  -17.5181   -4.4068 C   0  0  0  0  0  0  0  0  0  0  0  0
  -32.1307  -16.5826   -6.6226 C   0  0  0  0  0  0  0  0  0  0  0  0
  -31.6243  -18.1297   -3.1096 C   0  0  0  0  0  0  0  0  0  0  0  0
  -32.0763  -22.3605  -12.7922 O   0  0  0  0  0  0  0  0  0  0  0  0
  -30.9718  -17.4917   -2.1840 O   0  0  0  0  0  0  0  0  0  0  0  0
  -32.5117  -15.8566   -8.0492 C   0  0  0  0  0  0  0  0  0  0  0  0
  -32.8162  -21.4357  -10.9214 O   0  0  0  0  0  0  0  0  0  0  0  0
  -33.5668  -20.5980  -11.5867 C   0  0  0  0  0  0  0  0  0  0  0  0
  -33.4618  -20.7939  -13.0257 C   0  0  0  0  0  0  0  0  0  0  0  0
  -32.9237  -21.8861  -13.5897 C   0  0  0  0  0  0  0  0  0  0  0  0
  -32.2302  -19.3626   -2.8077 C   0  0  0  0  0  0  0  0  0  0  0  0
  -34.2623  -19.7305  -13.7568 O   0  0  0  0  0  0  0  0  0  0  0  0
  -33.5684  -15.0987   -8.1004 O   0  0  0  0  0  0  0  0  0  0  0  0
  -31.6220  -16.0021   -9.0396 N   0  0  0  0  0  0  0  0  0  0  0  0
  -32.9807  -16.9255   -4.6781 C   0  0  0  0  0  0  0  0  0  0  0  0
  -32.4051  -19.6842   -1.5759 O   0  0  0  0  0  0  0  0  0  0  0  0
  -31.8681  -15.3531  -10.2297 C   0  0  0  0  0  0  0  0  0  0  0  0
  -34.0745  -19.3990  -11.1423 C   0  0  0  0  0  0  0  0  0  0  0  0
  -33.2285  -16.2100   -5.8418 C   0  0  0  0  0  0  0  0  0  0  0  0
  -34.7128  -18.5280  -12.0360 C   0  0  0  0  0  0  0  0  0  0  0  0
  -33.7996  -18.9155   -9.9264 C   0  0  0  0  0  0  0  0  0  0  0  0
  -31.9710  -23.4947  -10.7676 F   0  0  0  0  0  0  0  0  0  0  0  0
  -33.0608  -22.3489  -14.7696 O   0  0  0  0  0  0  0  0  0  0  0  0
  -34.6459  -18.7336  -13.4277 C   0  0  0  0  0  0  0  0  0  0  0  0
  -35.0864  -17.8626  -14.3013 O   0  0  0  0  0  0  0  0  0  0  0  0
  -30.4868  -16.9007   -8.9130 C   0  0  0  0  0  0  0  0  0  0  0  0
  -32.4937  -20.2609   -3.8073 N   0  0  0  0  0  0  0  0  0  0  0  0
  -34.9232  -18.5769   -9.2672 O   0  0  0  0  0  0  0  0  0  0  0  0
  2  7  1  0
  2 11  1  0
  2 14  2  0
  3  7  1  0
  3  9  1  0
  3 12  2  0
  9 11  1  0
 11 13  2  3
  1  7  2  0
  1  8  1  0
  4  9  2  0
  4 10  1  0
  6 14  1  0
  6  8  2  0
  5 12  1  0
  5 10  2  0
 13 15  1  0
  6 16  1  0
 15 17  1  0
 17 18  1  0
 18 19  2  0
 17 20  2  0
 19 21  1  0
 16 22  1  0
 21 23  2  0
 20 24  1  0
 16 25  1  0
 25 26  1  0
 26 27  2  0
 22 28  1  0
 27 28  1  0
 21 29  1  0
 27 30  1  0
 24 31  2  0
 24 32  1  0
 19 33  1  0
 29 34  2  0
 32 35  1  0
 26 36  1  0
 20 37  1  0
 33 37  2  0
 36 38  1  0
 36 39  1  0
 16 40  1  0
 28 41  2  0
 30 42  1  0
 38 42  1  0
 42 43  2  0
 15 44  2  0
 32 44  1  0
 29 45  1  0
 39 46  1  0
M  END
$$$$

     RDKit          3D

 46 52  0  0  0  0  0  0  0  0999 V2000
  -28.1100  -21.1250  -11.7830 C   0  0  0  0  0  0  0  0  0  0  0  0
  -29.1380  -20.1340   -9.8150 C   0  0  0  0  0  0  0  0  0  0  0  0
  -26.8640  -19.6120  -10.1060 C   0  0  0  0  0  0  0  0  0  0  0  0
  -26.3470  -18.1740   -8.1970 C   0  0  0  0  0  0  0  0  0  0  0  0
  -24.6510  -18.7420   -9.8540 C   0  0  0  0  0  0  0  0  0  0  0  0
  -30.4600  -21.5050  -11.2460 C   0  0  0  0  0  0  0  0  0  0  0  0
  -28.0100  -20.3360  -10.6490 C   0  0  0  0  0  0  0  0  0  0  0  0
  -29.3460  -21.7100  -12.0780 C   0  0  0  0  0  0  0  0  0  0  0  0
  -27.2470  -18.9400   -8.9190 C   0  0  0  0  0  0  0  0  0  0  0  0
  -25.0380  -18.0800   -8.6770 C   0  0  0  0  0  0  0  0  0  0  0  0
  -28.6770  -19.2570   -8.7170 C   0  0  0  0  0  0  0  0  0  0  0  0
  -25.5650  -19.5150  -10.5780 C   0  0  0  0  0  0  0  0  0  0  0  0
  -29.5470  -18.7540   -7.5500 C   0  0  0  0  0  0  0  0  0  0  0  0
  -30.3630  -20.7110  -10.1010 C   0  0  0  0  0  0  0  0  0  0  0  0
  -31.6372  -22.1895  -11.6585 N   0  0  0  0  0  0  0  0  0  0  0  0
  -31.6596  -23.1099  -12.5883 C   0  0  0  0  0  0  0  0  0  0  0  0
  -30.2377  -17.5894   -7.7821 C   0  0  0  0  0  0  0  0  0  0  0  0
  -31.0309  -17.2219   -6.5960 C   0  0  0  0  0  0  0  0  0  0  0  0
  -32.1239  -22.5265  -13.8248 C   0  0  0  0  0  0  0  0  0  0  0  0
  -30.7865  -17.6153   -5.4577 C   0  0  0  0  0  0  0  0  0  0  0  0
  -31.6712  -17.3381   -4.2831 C   0  0  0  0  0  0  0  0  0  0  0  0
  -32.1182  -16.2558   -6.7005 C   0  0  0  0  0  0  0  0  0  0  0  0
  -32.3617  -15.6938   -8.0459 C   0  0  0  0  0  0  0  0  0  0  0  0
  -31.5581  -18.0751   -3.0983 C   0  0  0  0  0  0  0  0  0  0  0  0
  -30.9701  -17.5335   -2.0273 O   0  0  0  0  0  0  0  0  0  0  0  0
  -32.8996  -16.7232   -4.4455 C   0  0  0  0  0  0  0  0  0  0  0  0
  -32.8664  -21.3003  -13.6640 C   0  0  0  0  0  0  0  0  0  0  0  0
  -32.7800  -20.8230  -12.4429 N   0  0  0  0  0  0  0  0  0  0  0  0
  -32.7244  -21.3392  -11.4656 C   0  0  0  0  0  0  0  0  0  0  0  0
  -33.2604  -14.8550   -8.2228 O   0  0  0  0  0  0  0  0  0  0  0  0
  -33.0888  -16.0336   -5.7654 C   0  0  0  0  0  0  0  0  0  0  0  0
  -31.6462  -16.1257   -9.1416 N   0  0  0  0  0  0  0  0  0  0  0  0
  -32.0149  -19.4400   -2.8607 C   0  0  0  0  0  0  0  0  0  0  0  0
  -32.5596  -20.3461   -3.8433 C   0  0  0  0  0  0  0  0  0  0  0  0
  -31.1176  -18.5333   -0.9931 C   0  0  0  0  0  0  0  0  0  0  0  0
  -30.8774  -18.1702    0.3259 C   0  0  0  0  0  0  0  0  0  0  0  0
  -32.9678  -21.3656   -3.7401 O   0  0  0  0  0  0  0  0  0  0  0  0
  -30.3920  -16.8731   -8.9272 C   0  0  0  0  0  0  0  0  0  0  0  0
  -33.5503  -19.3930  -12.3128 C   0  0  0  0  0  0  0  0  0  0  0  0
  -31.9255  -15.3600  -10.3782 C   0  0  0  0  0  0  0  0  0  0  0  0
  -33.3718  -21.2753  -10.4047 O   0  0  0  0  0  0  0  0  0  0  0  0
  -33.3051  -19.8094   -4.9031 O   0  0  0  0  0  0  0  0  0  0  0  0
  -30.8819  -14.8086  -10.9717 C   0  0  0  0  0  0  0  0  0  0  0  0
  -31.8376  -19.5928   -1.4617 C   0  0  0  0  0  0  0  0  0  0  0  0
  -32.8878  -15.6406  -10.9681 O   0  0  0  0  0  0  0  0  0  0  0  0
  -32.6751  -18.2890  -12.6442 C   0  0  0  0  0  0  0  0  0  0  0  0
  2  7  1  0
  2 11  1  0
  2 14  2  0
  3  7  1  0
  3  9  1  0
  3 12  2  0
  9 11  1  0
 11 13  2  3
  1  7  2  0
  1  8  1  0
  4  9  2  0
  4 10  1  0
  6 14  1  0
  6  8  2  0
  5 12  1  0
  5 10  2  0
  6 15  1  0
 15 16  1  0
 13 17  1  0
 17 18  1  0
 16 19  1  0
 18 20  2  0
 20 21  1  0
 18 22  1  0
 22 23  1  0
 21 24  1  0
 24 25  1  0
 21 26  2  0
 19 27  1  0
 27 28  1  0
 15 29  1  0
 28 29  1  0
 23 30  2  0
 22 31  2  0
 26 31  1  0
 23 32  1  0
 24 33  2  0
 33 34  1  0
 25 35  1  0
 35 36  1  0
 34 37  2  0
 17 38  1  0
 32 38  1  0
 28 39  1  0
 32 40  1  0
 29 41  2  0
 34 42  1  0
 40 43  1  0
 33 44  1  0
 35 44  2  0
 40 45  2  0
 39 46  1  0
M  END
$$$$

     RDKit          3D

 47 53  0  0  0  0  0  0  0  0999 V2000
  -28.1100  -21.1250  -11.7830 C   0  0  0  0  0  0  0  0  0  0  0  0
  -29.1380  -20.1340   -9.8150 C   0  0  0  0  0  0  0  0  0  0  0  0
  -26.8640  -19.6120  -10.1060 C   0  0  0  0  0  0  0  0  0  0  0  0
  -26.3470  -18.1740   -8.1970 C   0  0  0  0  0  0  0  0  0  0  0  0
  -24.6510  -18.7420   -9.8540 C   0  0  0  0  0  0  0  0  0  0  0  0
  -30.4600  -21.5050  -11.2460 C   0  0  0  0  0  0  0  0  0  0  0  0
  -28.0100  -20.3360  -10.6490 C   0  0  0  0  0  0  0  0  0  0  0  0
  -29.3460  -21.7100  -12.0780 C   0  0  0  0  0  0  0  0  0  0  0  0
  -27.2470  -18.9400   -8.9190 C   0  0  0  0  0  0  0  0  0  0  0  0
  -25.0380  -18.0800   -8.6770 C   0  0  0  0  0  0  0  0  0  0  0  0
  -28.6770  -19.2570   -8.7170 C   0  0  0  0  0  0  0  0  0  0  0  0
  -25.5650  -19.5150  -10.5780 C   0  0  0  0  0  0  0  0  0  0  0  0
  -29.5470  -18.7540   -7.5500 C   0  0  0  0  0  0  0  0  0  0  0  0
  -30.3630  -20.7110  -10.1010 C   0  0  0  0  0  0  0  0  0  0  0  0
  -31.6372  -22.1895  -11.6585 N   0  0  0  0  0  0  0  0  0  0  0  0
  -30.2571  -17.6003   -7.7868 C   0  0  0  0  0  0  0  0  0  0  0  0
  -31.0594  -17.2358   -6.6100 C   0  0  0  0  0  0  0  0  0  0  0  0
  -32.1858  -16.7350   -6.5482 C   0  0  0  0  0  0  0  0  0  0  0  0
  -30.4666  -16.8425   -8.5780 C   0  0  0  0  0  0  0  0  0  0  0  0
  -30.9060  -18.0473   -5.1963 C   0  0  0  0  0  0  0  0  0  0  0  0
  -31.6657  -23.1435  -12.5686 C   0  0  0  0  0  0  0  0  0  0  0  0
  -31.7940  -17.7755   -4.2400 C   0  0  0  0  0  0  0  0  0  0  0  0
  -33.2340  -16.6169   -5.7193 C   0  0  0  0  0  0  0  0  0  0  0  0
  -32.7521  -21.2022  -11.9255 C   0  0  0  0  0  0  0  0  0  0  0  0
  -34.3931  -15.8325   -5.9756 O   0  0  0  0  0  0  0  0  0  0  0  0
  -33.2098  -17.2356   -4.4846 C   0  0  0  0  0  0  0  0  0  0  0  0
  -33.1546  -20.7649  -12.9870 O   0  0  0  0  0  0  0  0  0  0  0  0
  -33.1935  -20.4638  -10.8726 O   0  0  0  0  0  0  0  0  0  0  0  0
  -33.7845  -19.5207  -13.2101 C   0  0  0  0  0  0  0  0  0  0  0  0
  -34.6658  -19.5273  -14.2459 C   0  0  0  0  0  0  0  0  0  0  0  0
  -33.1444  -18.4334  -12.9289 C   0  0  0  0  0  0  0  0  0  0  0  0
  -31.0921  -16.8965   -3.2458 C   0  0  0  0  0  0  0  0  0  0  0  0
  -30.5115  -15.8157   -3.4676 O   0  0  0  0  0  0  0  0  0  0  0  0
  -29.5350  -16.7743   -9.7654 C   0  0  0  0  0  0  0  0  0  0  0  0
  -31.2869  -15.6839   -8.4008 C   0  0  0  0  0  0  0  0  0  0  0  0
  -32.1974  -19.1220   -3.5348 C   0  0  0  0  0  0  0  0  0  0  0  0
  -31.7977  -19.3759   -2.3534 O   0  0  0  0  0  0  0  0  0  0  0  0
  -31.1556  -17.1065   -1.8774 O   0  0  0  0  0  0  0  0  0  0  0  0
  -31.3111  -14.6979   -9.6503 C   0  0  0  0  0  0  0  0  0  0  0  0
  -35.2935  -20.7217  -14.8037 O   0  0  0  0  0  0  0  0  0  0  0  0
  -29.6045  -15.7409  -10.7466 C   0  0  0  0  0  0  0  0  0  0  0  0
  -33.5714  -17.0944  -13.2322 C   0  0  0  0  0  0  0  0  0  0  0  0
  -30.5088  -14.7367  -10.7514 C   0  0  0  0  0  0  0  0  0  0  0  0
  -34.6287  -16.9710  -14.1181 C   0  0  0  0  0  0  0  0  0  0  0  0
  -32.6812  -19.9374   -4.3411 N   0  0  0  0  0  0  0  0  0  0  0  0
  -32.3233  -15.5538   -7.6405 C   0  0  0  0  0  0  0  0  0  0  0  0
  -35.2263  -18.1828  -14.6697 C   0  0  0  0  0  0  0  0  0  0  0  0
  2  7  1  0
  2 11  1  0
  2 14  2  0
  3  7  1  0
  3  9  1  0
  3 12  2  0
  9 11  1  0
 11 13  2  3
  1  7  2  0
  1  8  1  0
  4  9  2  0
  4 10  1  0
  6 14  1  0
  6  8  2  0
  5 12  1  0
  5 10  2  0
  6 15  1  0
 13 16  1  0
 16 17  1  0
 17 18  2  0
 16 19  2  0
 17 20  1  0
 15 21  1  0
 20 22  1  0
 18 23  1  0
 15 24  1  0
 23 25  2  0
 22 26  1  0
 23 26  1  0
 24 27  1  0
 24 28  2  0
 27 29  1  0
 29 30  1  0
 29 31  2  0
 22 32  1  0
 32 33  2  0
 19 34  1  0
 19 35  1  0
 22 36  1  0
 36 37  2  0
 32 38  1  0
 35 39  1  0
 30 40  1  0
 34 41  2  0
 31 42  1  0
 39 43  2  0
 41 43  1  0
 42 44  2  0
 36 45  1  0
 18 46  1  0
 35 46  2  0
 30 47  2  0
 44 47  1  0
M  END
$$$$

     RDKit          3D

 47 53  0  0  0  0  0  0  0  0999 V2000
  -28.1100  -21.1250  -11.7830 C   0  0  0  0  0  0  0  0  0  0  0  0
  -29.1380  -20.1340   -9.8150 C   0  0  0  0  0  0  0  0  0  0  0  0
  -26.8640  -19.6120  -10.1060 C   0  0  0  0  0  0  0  0  0  0  0  0
  -26.3470  -18.1740   -8.1970 C   0  0  0  0  0  0  0  0  0  0  0  0
  -24.6510  -18.7420   -9.8540 C   0  0  0  0  0  0  0  0  0  0  0  0
  -30.4600  -21.5050  -11.2460 C   0  0  0  0  0  0  0  0  0  0  0  0
  -28.0100  -20.3360  -10.6490 C   0  0  0  0  0  0  0  0  0  0  0  0
  -29.3460  -21.7100  -12.0780 C   0  0  0  0  0  0  0  0  0  0  0  0
  -27.2470  -18.9400   -8.9190 C   0  0  0  0  0  0  0  0  0  0  0  0
  -25.0380  -18.0800   -8.6770 C   0  0  0  0  0  0  0  0  0  0  0  0
  -28.6770  -19.2570   -8.7170 C   0  0  0  0  0  0  0  0  0  0  0  0
  -25.5650  -19.5150  -10.5780 C   0  0  0  0  0  0  0  0  0  0  0  0
  -29.5470  -18.7540   -7.5500 C   0  0  0  0  0  0  0  0  0  0  0  0
  -30.3630  -20.7110  -10.1010 C   0  0  0  0  0  0  0  0  0  0  0  0
  -30.2682  -17.6131   -7.7884 C   0  0  0  0  0  0  0  0  0  0  0  0
  -31.6351  -22.1828  -11.6616 C   0  0  0  0  0  0  0  0  0  0  0  0
  -31.0673  -17.2422   -6.6095 C   0  0  0  0  0  0  0  0  0  0  0  0
  -30.8352  -17.6300   -5.4844 C   0  0  0  0  0  0  0  0  0  0  0  0
  -31.8425  -17.5181   -4.4068 C   0  0  0  0  0  0  0  0  0  0  0  0
  -32.1307  -16.5826   -6.6226 C   0  0  0  0  0  0  0  0  0  0  0  0
  -31.6243  -18.1297   -3.1096 C   0  0  0  0  0  0  0  0  0  0  0  0
  -32.0763  -22.3605  -12.7922 O   0  0  0  0  0  0  0  0  0  0  0  0
  -30.9718  -17.4917   -2.1840 O   0  0  0  0  0  0  0  0  0  0  0  0
  -32.5117  -15.8566   -8.0492 C   0  0  0  0  0  0  0  0  0  0  0  0
  -32.8162  -21.4357  -10.9214 O   0  0  0  0  0  0  0  0  0  0  0  0
  -33.5668  -20.5980  -11.5867 C   0  0  0  0  0  0  0  0  0  0  0  0
  -33.4618  -20.7939  -13.0257 C   0  0  0  0  0  0  0  0  0  0  0  0
  -32.9237  -21.8861  -13.5897 C   0  0  0  0  0  0  0  0  0  0  0  0
  -32.2302  -19.3626   -2.8077 C   0  0  0  0  0  0  0  0  0  0  0  0
  -34.2623  -19.7305  -13.7568 O   0  0  0  0  0  0  0  0  0  0  0  0
  -30.7976  -17.1302   -9.0780 C   0  0  0  0  0  0  0  0  0  0  0  0
  -34.4497  -19.9542  -10.9418 C   0  0  0  0  0  0  0  0  0  0  0  0
  -29.9727  -17.3337  -10.2231 O   0  0  0  0  0  0  0  0  0  0  0  0
  -32.8782  -16.1853   -5.4900 C   0  0  0  0  0  0  0  0  0  0  0  0
  -34.0802  -15.2389   -5.7369 O   0  0  0  0  0  0  0  0  0  0  0  0
  -32.9201  -16.7662   -4.4703 C   0  0  0  0  0  0  0  0  0  0  0  0
  -32.5171  -19.6936   -1.5691 O   0  0  0  0  0  0  0  0  0  0  0  0
  -33.0115  -22.2946  -14.8224 O   0  0  0  0  0  0  0  0  0  0  0  0
  -31.6864  -23.5448  -10.8763 C   0  0  0  0  0  0  0  0  0  0  0  0
  -32.4531  -20.2693   -3.8268 N   0  0  0  0  0  0  0  0  0  0  0  0
  -34.9669  -18.9461  -12.9377 C   0  0  0  0  0  0  0  0  0  0  0  0
  -35.0708  -18.8444  -11.6492 C   0  0  0  0  0  0  0  0  0  0  0  0
  -31.8842  -16.1607   -9.0774 C   0  0  0  0  0  0  0  0  0  0  0  0
  -35.8640  -17.8324  -11.1057 C   0  0  0  0  0  0  0  0  0  0  0  0
  -34.6030  -19.9842   -9.7148 O   0  0  0  0  0  0  0  0  0  0  0  0
  -35.9869  -17.7632   -9.7454 O   0  0  0  0  0  0  0  0  0  0  0  0
  -36.0940  -16.6794  -11.7994 O   0  0  0  0  0  0  0  0  0  0  0  0
  2  7  1  0
  2 11  1  0
  2 14  2  0
  3  7  1  0
  3  9  1  0
  3 12  2  0
  9 11  1  0
 11 13  2  3
  1  7  2  0
  1  8  1  0
  4  9  2  0
  4 10  1  0
  6 14  1  0
  6  8  2  0
  5 12  1  0
  5 10  2  0
 13 15  1  0
  6 16  1  0
 15 17  1  0
 17 18  1  0
 18 19  2  0
 17 20  2  0
 19 21  1  0
 16 22  1  0
 21 23  2  0
 20 24  1  0
 16 25  1  0
 25 26  1  0
 26 27  2  0
 22 28  1  0
 27 28  1  0
 21 29  1  0
 27 30  1  0
 15 31  2  0
 26 32  1  0
 31 33  1  0
 20 34  1  0
 34 35  1  0
 19 36  1  0
 34 36  2  0
 29 37  2  0
 28 38  2  0
 16 39  1  0
 29 40  1  0
 30 41  1  0
 32 42  1  0
 41 42  2  0
 24 43  2  0
 31 43  1  0
 42 44  1  0
 32 45  2  0
 44 46  1  0
 44 47  2  0
M  END
$$$$

     RDKit          3D

 47 53  0  0  0  0  0  0  0  0999 V2000
  -28.1100  -21.1250  -11.7830 C   0  0  0  0  0  0  0  0  0  0  0  0
  -29.1380  -20.1340   -9.8150 C   0  0  0  0  0  0  0  0  0  0  0  0
  -26.8640  -19.6120  -10.1060 C   0  0  0  0  0  0  0  0  0  0  0  0
  -26.3470  -18.1740   -8.1970 C   0  0  0  0  0  0  0  0  0  0  0  0
  -24.6510  -18.7420   -9.8540 C   0  0  0  0  0  0  0  0  0  0  0  0
  -30.4600  -21.5050  -11.2460 C   0  0  0  0  0  0  0  0  0  0  0  0
  -28.0100  -20.3360  -10.6490 C   0  0  0  0  0  0  0  0  0  0  0  0
  -29.3460  -21.7100  -12.0780 C   0  0  0  0  0  0  0  0  0  0  0  0
  -27.2470  -18.9400   -8.9190 C   0  0  0  0  0  0  0  0  0  0  0  0
  -25.0380  -18.0800   -8.6770 C   0  0  0  0  0  0  0  0  0  0  0  0
  -28.6770  -19.2570   -8.7170 C   0  0  0  0  0  0  0  0  0  0  0  0
  -25.5650  -19.5150  -10.5780 C   0  0  0  0  0  0  0  0  0  0  0  0
  -29.5470  -18.7540   -7.5500 C   0  0  0  0  0  0  0  0  0  0  0  0
  -30.3630  -20.7110  -10.1010 C   0  0  0  0  0  0  0  0  0  0  0  0
  -30.2682  -17.6131   -7.7884 C   0  0  0  0  0  0  0  0  0  0  0  0
  -31.6351  -22.1828  -11.6616 C   0  0  0  0  0  0  0  0  0  0  0  0
  -31.0673  -17.2422   -6.6095 C   0  0  0  0  0  0  0  0  0  0  0  0
  -30.8352  -17.6300   -5.4844 C   0  0  0  0  0  0  0  0  0  0  0  0
  -31.8425  -17.5181   -4.4068 C   0  0  0  0  0  0  0  0  0  0  0  0
  -32.1307  -16.5826   -6.6226 C   0  0  0  0  0  0  0  0  0  0  0  0
  -31.6243  -18.1297   -3.1096 C   0  0  0  0  0  0  0  0  0  0  0  0
  -32.0763  -22.3605  -12.7922 O   0  0  0  0  0  0  0  0  0  0  0  0
  -30.9718  -17.4917   -2.1840 O   0  0  0  0  0  0  0  0  0  0  0  0
  -32.5117  -15.8566   -8.0492 C   0  0  0  0  0  0  0  0  0  0  0  0
  -32.8162  -21.4357  -10.9214 O   0  0  0  0  0  0  0  0  0  0  0  0
  -33.5668  -20.5980  -11.5867 C   0  0  0  0  0  0  0  0  0  0  0  0
  -33.4618  -20.7939  -13.0257 C   0  0  0  0  0  0  0  0  0  0  0  0
  -32.9237  -21.8861  -13.5897 C   0  0  0  0  0  0  0  0  0  0  0  0
  -32.2302  -19.3626   -2.8077 C   0  0  0  0  0  0  0  0  0  0  0  0
  -34.2623  -19.7305  -13.7568 O   0  0  0  0  0  0  0  0  0  0  0  0
  -33.5684  -15.0987   -8.1004 O   0  0  0  0  0  0  0  0  0  0  0  0
  -31.6220  -16.0021   -9.0396 N   0  0  0  0  0  0  0  0  0  0  0  0
  -32.9807  -16.9255   -4.6781 C   0  0  0  0  0  0  0  0  0  0  0  0
  -32.4051  -19.6842   -1.5759 O   0  0  0  0  0  0  0  0  0  0  0  0
  -31.8681  -15.3531  -10.2297 C   0  0  0  0  0  0  0  0  0  0  0  0
  -32.6533  -20.1873   -3.8056 N   0  0  0  0  0  0  0  0  0  0  0  0
  -33.9865  -16.7525   -3.6239 C   0  0  0  0  0  0  0  0  0  0  0  0
  -31.9645  -23.4194  -10.8922 F   0  0  0  0  0  0  0  0  0  0  0  0
  -34.7825  -18.7619  -12.9698 C   0  0  0  0  0  0  0  0  0  0  0  0
  -33.2051  -16.2688   -5.8646 C   0  0  0  0  0  0  0  0  0  0  0  0
  -35.2882  -17.7114  -13.5898 O   0  0  0  0  0  0  0  0  0  0  0  0
  -30.4602  -16.8736   -8.9387 C   0  0  0  0  0  0  0  0  0  0  0  0
  -32.0605  -16.0791  -11.3606 C   0  0  0  0  0  0  0  0  0  0  0  0
  -33.0018  -22.3037  -14.7503 O   0  0  0  0  0  0  0  0  0  0  0  0
  -34.2322  -18.9517  -11.6771 C   0  0  0  0  0  0  0  0  0  0  0  0
  -32.5092  -15.7013  -12.5000 O   0  0  0  0  0  0  0  0  0  0  0  0
  -31.9002  -17.4307  -11.3065 O   0  0  0  0  0  0  0  0  0  0  0  0
  2  7  1  0
  2 11  1  0
  2 14  2  0
  3  7  1  0
  3  9  1  0
  3 12  2  0
  9 11  1  0
 11 13  2  3
  1  7  2  0
  1  8  1  0
  4  9  2  0
  4 10  1  0
  6 14  1  0
  6  8  2  0
  5 12  1  0
  5 10  2  0
 13 15  1  0
  6 16  1  0
 15 17  1  0
 17 18  1  0
 18 19  2  0
 17 20  2  0
 19 21  1  0
 16 22  1  0
 21 23  2  0
 20 24  1  0
 16 25  1  0
 25 26  1  0
 26 27  2  0
 22 28  1  0
 27 28  1  0
 21 29  1  0
 27 30  1  0
 24 31  2  0
 24 32  1  0
 19 33  1  0
 29 34  2  0
 32 35  1  0
 29 36  1  0
 33 37  1  0
 16 38  1  0
 30 39  1  0
 20 40  1  0
 33 40  2  0
 39 41  2  0
 15 42  1  0
 32 42  1  0
 35 43  1  0
 28 44  2  0
 26 45  1  0
 39 45  1  0
 43 46  2  0
 43 47  1  0
M  END
$$$$

     RDKit          3D

 48 54  0  0  0  0  0  0  0  0999 V2000
  -28.1100  -21.1250  -11.7830 C   0  0  0  0  0  0  0  0  0  0  0  0
  -29.1380  -20.1340   -9.8150 C   0  0  0  0  0  0  0  0  0  0  0  0
  -26.8640  -19.6120  -10.1060 C   0  0  0  0  0  0  0  0  0  0  0  0
  -26.3470  -18.1740   -8.1970 C   0  0  0  0  0  0  0  0  0  0  0  0
  -24.6510  -18.7420   -9.8540 C   0  0  0  0  0  0  0  0  0  0  0  0
  -30.4600  -21.5050  -11.2460 C   0  0  0  0  0  0  0  0  0  0  0  0
  -28.0100  -20.3360  -10.6490 C   0  0  0  0  0  0  0  0  0  0  0  0
  -29.3460  -21.7100  -12.0780 C   0  0  0  0  0  0  0  0  0  0  0  0
  -27.2470  -18.9400   -8.9190 C   0  0  0  0  0  0  0  0  0  0  0  0
  -25.0380  -18.0800   -8.6770 C   0  0  0  0  0  0  0  0  0  0  0  0
  -28.6770  -19.2570   -8.7170 C   0  0  0  0  0  0  0  0  0  0  0  0
  -25.5650  -19.5150  -10.5780 C   0  0  0  0  0  0  0  0  0  0  0  0
  -29.5470  -18.7540   -7.5500 C   0  0  0  0  0  0  0  0  0  0  0  0
  -30.3630  -20.7110  -10.1010 C   0  0  0  0  0  0  0  0  0  0  0  0
  -31.6372  -22.1895  -11.6585 N   0  0  0  0  0  0  0  0  0  0  0  0
  -30.2571  -17.6003   -7.7868 C   0  0  0  0  0  0  0  0  0  0  0  0
  -31.0594  -17.2358   -6.6100 C   0  0  0  0  0  0  0  0  0  0  0  0
  -32.1858  -16.7350   -6.5482 C   0  0  0  0  0  0  0  0  0  0  0  0
  -30.4666  -16.8425   -8.5780 C   0  0  0  0  0  0  0  0  0  0  0  0
  -30.9060  -18.0473   -5.1963 C   0  0  0  0  0  0  0  0  0  0  0  0
  -31.6657  -23.1435  -12.5686 C   0  0  0  0  0  0  0  0  0  0  0  0
  -31.7940  -17.7755   -4.2400 C   0  0  0  0  0  0  0  0  0  0  0  0
  -33.2340  -16.6169   -5.7193 C   0  0  0  0  0  0  0  0  0  0  0  0
  -32.7521  -21.2022  -11.9255 C   0  0  0  0  0  0  0  0  0  0  0  0
  -34.3931  -15.8325   -5.9756 O   0  0  0  0  0  0  0  0  0  0  0  0
  -33.2098  -17.2356   -4.4846 C   0  0  0  0  0  0  0  0  0  0  0  0
  -33.1546  -20.7649  -12.9870 O   0  0  0  0  0  0  0  0  0  0  0  0
  -33.1935  -20.4638  -10.8726 O   0  0  0  0  0  0  0  0  0  0  0  0
  -33.7845  -19.5207  -13.2101 C   0  0  0  0  0  0  0  0  0  0  0  0
  -34.6658  -19.5273  -14.2459 C   0  0  0  0  0  0  0  0  0  0  0  0
  -33.1444  -18.4334  -12.9289 C   0  0  0  0  0  0  0  0  0  0  0  0
  -31.0921  -16.8965   -3.2458 C   0  0  0  0  0  0  0  0  0  0  0  0
  -30.5115  -15.8157   -3.4676 O   0  0  0  0  0  0  0  0  0  0  0  0
  -33.6320  -17.1449  -13.3736 C   0  0  0  0  0  0  0  0  0  0  0  0
  -32.3845  -15.7855   -7.8284 C   0  0  0  0  0  0  0  0  0  0  0  0
  -32.2471  -18.8060   -3.3223 N   0  0  0  0  0  0  0  0  0  0  0  0
  -31.1548  -17.3350   -2.0080 O   0  0  0  0  0  0  0  0  0  0  0  0
  -35.2496  -20.7736  -14.7235 O   0  0  0  0  0  0  0  0  0  0  0  0
  -31.8511  -18.7561   -2.0303 C   0  0  0  0  0  0  0  0  0  0  0  0
  -32.9593  -15.9300  -12.8010 C   0  0  0  0  0  0  0  0  0  0  0  0
  -35.2063  -18.3952  -14.7184 C   0  0  0  0  0  0  0  0  0  0  0  0
  -33.3840  -14.8596   -7.9685 O   0  0  0  0  0  0  0  0  0  0  0  0
  -36.2609  -18.3693  -15.6707 O   0  0  0  0  0  0  0  0  0  0  0  0
  -34.6666  -17.1141  -14.2486 C   0  0  0  0  0  0  0  0  0  0  0  0
  -32.8740  -20.0471   -3.7499 C   0  0  0  0  0  0  0  0  0  0  0  0
  -32.8927  -21.1210   -3.1595 O   0  0  0  0  0  0  0  0  0  0  0  0
  -33.5629  -19.8660   -4.9477 O   0  0  0  0  0  0  0  0  0  0  0  0
  -31.4107  -15.8723   -8.8528 C   0  0  0  0  0  0  0  0  0  0  0  0
  2  7  1  0
  2 11  1  0
  2 14  2  0
  3  7  1  0
  3  9  1  0
  3 12  2  0
  9 11  1  0
 11 13  2  3
  1  7  2  0
  1  8  1  0
  4  9  2  0
  4 10  1  0
  6 14  1  0
  6  8  2  0
  5 12  1  0
  5 10  2  0
  6 15  1  0
 13 16  1  0
 16 17  1  0
 17 18  2  0
 16 19  2  0
 17 20  1  0
 15 21  1  0
 20 22  1  0
 18 23  1  0
 15 24  1  0
 23 25  2  0
 22 26  1  0
 23 26  1  0
 24 27  1  0
 24 28  2  0
 27 29  1  0
 29 30  1  0
 29 31  2  0
 22 32  1  0
 32 33  2  0
 31 34  1  0
 18 35  1  0
 22 36  1  0
 32 37  1  0
 30 38  1  0
 36 39  1  0
 37 39  1  0
 34 40  1  0
 30 41  2  0
 35 42  1  0
 41 43  1  0
 34 44  2  0
 41 44  1  0
 36 45  1  0
 45 46  2  0
 45 47  1  0
 19 48  1  0
 35 48  2  0
M  END
$$$$

     RDKit          3D

 48 55  0  0  0  0  0  0  0  0999 V2000
  -28.1100  -21.1250  -11.7830 C   0  0  0  0  0  0  0  0  0  0  0  0
  -29.1380  -20.1340   -9.8150 C   0  0  0  0  0  0  0  0  0  0  0  0
  -26.8640  -19.6120  -10.1060 C   0  0  0  0  0  0  0  0  0  0  0  0
  -26.3470  -18.1740   -8.1970 C   0  0  0  0  0  0  0  0  0  0  0  0
  -24.6510  -18.7420   -9.8540 C   0  0  0  0  0  0  0  0  0  0  0  0
  -30.4600  -21.5050  -11.2460 C   0  0  0  0  0  0  0  0  0  0  0  0
  -28.0100  -20.3360  -10.6490 C   0  0  0  0  0  0  0  0  0  0  0  0
  -29.3460  -21.7100  -12.0780 C   0  0  0  0  0  0  0  0  0  0  0  0
  -27.2470  -18.9400   -8.9190 C   0  0  0  0  0  0  0  0  0  0  0  0
  -25.0380  -18.0800   -8.6770 C   0  0  0  0  0  0  0  0  0  0  0  0
  -28.6770  -19.2570   -8.7170 C   0  0  0  0  0  0  0  0  0  0  0  0
  -25.5650  -19.5150  -10.5780 C   0  0  0  0  0  0  0  0  0  0  0  0
  -29.5470  -18.7540   -7.5500 C   0  0  0  0  0  0  0  0  0  0  0  0
  -30.3630  -20.7110  -10.1010 C   0  0  0  0  0  0  0  0  0  0  0  0
  -30.2682  -17.6131   -7.7884 C   0  0  0  0  0  0  0  0  0  0  0  0
  -31.6351  -22.1828  -11.6616 C   0  0  0  0  0  0  0  0  0  0  0  0
  -31.0673  -17.2422   -6.6095 C   0  0  0  0  0  0  0  0  0  0  0  0
  -30.8352  -17.6300   -5.4844 C   0  0  0  0  0  0  0  0  0  0  0  0
  -31.8425  -17.5181   -4.4068 C   0  0  0  0  0  0  0  0  0  0  0  0
  -32.1307  -16.5826   -6.6226 C   0  0  0  0  0  0  0  0  0  0  0  0
  -31.6243  -18.1297   -3.1096 C   0  0  0  0  0  0  0  0  0  0  0  0
  -32.0763  -22.3605  -12.7922 O   0  0  0  0  0  0  0  0  0  0  0  0
  -30.9718  -17.4917   -2.1840 O   0  0  0  0  0  0  0  0  0  0  0  0
  -32.5117  -15.8566   -8.0492 C   0  0  0  0  0  0  0  0  0  0  0  0
  -32.8162  -21.4357  -10.9214 O   0  0  0  0  0  0  0  0  0  0  0  0
  -33.5668  -20.5980  -11.5867 C   0  0  0  0  0  0  0  0  0  0  0  0
  -33.4618  -20.7939  -13.0257 C   0  0  0  0  0  0  0  0  0  0  0  0
  -32.9237  -21.8861  -13.5897 C   0  0  0  0  0  0  0  0  0  0  0  0
  -32.2302  -19.3626   -2.8077 C   0  0  0  0  0  0  0  0  0  0  0  0
  -34.2623  -19.7305  -13.7568 O   0  0  0  0  0  0  0  0  0  0  0  0
  -33.5684  -15.0987   -8.1004 O   0  0  0  0  0  0  0  0  0  0  0  0
  -31.6220  -16.0021   -9.0396 N   0  0  0  0  0  0  0  0  0  0  0  0
  -32.9807  -16.9255   -4.6781 C   0  0  0  0  0  0  0  0  0  0  0  0
  -32.4051  -19.6842   -1.5759 O   0  0  0  0  0  0  0  0  0  0  0  0
  -31.8681  -15.3531  -10.2297 C   0  0  0  0  0  0  0  0  0  0  0  0
  -31.4748  -23.5390  -11.0297 C   0  0  0  0  0  0  0  0  0  0  0  0
  -34.4109  -19.9074  -10.9228 C   0  0  0  0  0  0  0  0  0  0  0  0
  -35.1311  -18.8411  -11.7071 C   0  0  0  0  0  0  0  0  0  0  0  0
  -33.2258  -16.2091   -5.8440 C   0  0  0  0  0  0  0  0  0  0  0  0
  -35.8315  -17.8860  -10.9991 C   0  0  0  0  0  0  0  0  0  0  0  0
  -36.8778  -17.1534  -11.5933 C   0  0  0  0  0  0  0  0  0  0  0  0
  -37.6364  -16.1694  -10.8907 O   0  0  0  0  0  0  0  0  0  0  0  0
  -35.1417  -18.7796  -13.1122 C   0  0  0  0  0  0  0  0  0  0  0  0
  -35.8841  -17.9198  -13.8637 C   0  0  0  0  0  0  0  0  0  0  0  0
  -32.4896  -20.2706   -3.8048 O   0  0  0  0  0  0  0  0  0  0  0  0
  -36.7410  -17.0065  -13.1520 C   0  0  0  0  0  0  0  0  0  0  0  0
  -33.1206  -22.1827  -14.8201 O   0  0  0  0  0  0  0  0  0  0  0  0
  -30.4687  -16.9089   -8.8852 C   0  0  0  0  0  0  0  0  0  0  0  0
  2  7  1  0
  2 11  1  0
  2 14  2  0
  3  7  1  0
  3  9  1  0
  3 12  2  0
  9 11  1  0
 11 13  2  3
  1  7  2  0
  1  8  1  0
  4  9  2  0
  4 10  1  0
  6 14  1  0
  6  8  2  0
  5 12  1  0
  5 10  2  0
 13 15  1  0
  6 16  1  0
 15 17  1  0
 17 18  1  0
 18 19  2  0
 17 20  2  0
 19 21  1  0
 16 22  1  0
 21 23  2  0
 20 24  1  0
 16 25  1  0
 25 26  1  0
 26 27  2  0
 22 28  1  0
 27 28  1  0
 21 29  1  0
 27 30  1  0
 24 31  2  0
 24 32  1  0
 19 33  1  0
 29 34  2  0
 32 35  1  0
 16 36  1  0
 26 37  1  0
 37 38  1  0
 20 39  1  0
 33 39  2  0
 38 40  2  0
 40 41  1  0
 41 42  1  0
 30 43  1  0
 38 43  1  0
 43 44  2  0
 29 45  1  0
 41 46  2  0
 44 46  1  0
 28 47  2  0
 15 48  2  0
 32 48  1  0
M  END
$$$$

     RDKit          3D

 48 55  0  0  0  0  0  0  0  0999 V2000
  -28.1100  -21.1250  -11.7830 C   0  0  0  0  0  0  0  0  0  0  0  0
  -29.1380  -20.1340   -9.8150 C   0  0  0  0  0  0  0  0  0  0  0  0
  -26.8640  -19.6120  -10.1060 C   0  0  0  0  0  0  0  0  0  0  0  0
  -26.3470  -18.1740   -8.1970 C   0  0  0  0  0  0  0  0  0  0  0  0
  -24.6510  -18.7420   -9.8540 C   0  0  0  0  0  0  0  0  0  0  0  0
  -30.4600  -21.5050  -11.2460 C   0  0  0  0  0  0  0  0  0  0  0  0
  -28.0100  -20.3360  -10.6490 C   0  0  0  0  0  0  0  0  0  0  0  0
  -29.3460  -21.7100  -12.0780 C   0  0  0  0  0  0  0  0  0  0  0  0
  -27.2470  -18.9400   -8.9190 C   0  0  0  0  0  0  0  0  0  0  0  0
  -25.0380  -18.0800   -8.6770 C   0  0  0  0  0  0  0  0  0  0  0  0
  -28.6770  -19.2570   -8.7170 C   0  0  0  0  0  0  0  0  0  0  0  0
  -25.5650  -19.5150  -10.5780 C   0  0  0  0  0  0  0  0  0  0  0  0
  -29.5470  -18.7540   -7.5500 C   0  0  0  0  0  0  0  0  0  0  0  0
  -30.3630  -20.7110  -10.1010 C   0  0  0  0  0  0  0  0  0  0  0  0
  -30.2682  -17.6131   -7.7884 C   0  0  0  0  0  0  0  0  0  0  0  0
  -31.6351  -22.1828  -11.6616 C   0  0  0  0  0  0  0  0  0  0  0  0
  -31.0673  -17.2422   -6.6095 C   0  0  0  0  0  0  0  0  0  0  0  0
  -30.8352  -17.6300   -5.4844 C   0  0  0  0  0  0  0  0  0  0  0  0
  -31.8425  -17.5181   -4.4068 C   0  0  0  0  0  0  0  0  0  0  0  0
  -32.1307  -16.5826   -6.6226 C   0  0  0  0  0  0  0  0  0  0  0  0
  -31.6243  -18.1297   -3.1096 C   0  0  0  0  0  0  0  0  0  0  0  0
  -32.0763  -22.3605  -12.7922 O   0  0  0  0  0  0  0  0  0  0  0  0
  -30.9718  -17.4917   -2.1840 O   0  0  0  0  0  0  0  0  0  0  0  0
  -32.5117  -15.8566   -8.0492 C   0  0  0  0  0  0  0  0  0  0  0  0
  -32.8162  -21.4357  -10.9214 O   0  0  0  0  0  0  0  0  0  0  0  0
  -33.5668  -20.5980  -11.5867 C   0  0  0  0  0  0  0  0  0  0  0  0
  -33.4618  -20.7939  -13.0257 C   0  0  0  0  0  0  0  0  0  0  0  0
  -32.9237  -21.8861  -13.5897 C   0  0  0  0  0  0  0  0  0  0  0  0
  -32.2302  -19.3626   -2.8077 C   0  0  0  0  0  0  0  0  0  0  0  0
  -34.2623  -19.7305  -13.7568 O   0  0  0  0  0  0  0  0  0  0  0  0
  -30.6238  -16.9835   -9.0668 C   0  0  0  0  0  0  0  0  0  0  0  0
  -34.4509  -19.9595  -10.9429 C   0  0  0  0  0  0  0  0  0  0  0  0
  -32.9494  -16.1998   -5.5422 C   0  0  0  0  0  0  0  0  0  0  0  0
  -34.1499  -15.3026   -5.7909 O   0  0  0  0  0  0  0  0  0  0  0  0
  -33.5648  -15.0267   -8.2113 O   0  0  0  0  0  0  0  0  0  0  0  0
  -35.1403  -18.8763  -11.7415 C   0  0  0  0  0  0  0  0  0  0  0  0
  -31.8523  -23.5331  -10.8365 F   0  0  0  0  0  0  0  0  0  0  0  0
  -32.5460  -20.3614   -3.7839 O   0  0  0  0  0  0  0  0  0  0  0  0
  -32.8908  -16.6383   -4.4000 C   0  0  0  0  0  0  0  0  0  0  0  0
  -34.7775  -18.9068  -12.9099 C   0  0  0  0  0  0  0  0  0  0  0  0
  -34.8241  -17.6261  -13.6934 C   0  0  0  0  0  0  0  0  0  0  0  0
  -32.4440  -19.9710   -1.6610 O   0  0  0  0  0  0  0  0  0  0  0  0
  -35.5778  -17.7094  -11.1235 C   0  0  0  0  0  0  0  0  0  0  0  0
  -34.5461  -17.5749  -15.1254 O   0  0  0  0  0  0  0  0  0  0  0  0
  -35.8264  -16.5490  -11.7627 C   0  0  0  0  0  0  0  0  0  0  0  0
  -32.9639  -22.2377  -14.8427 O   0  0  0  0  0  0  0  0  0  0  0  0
  -35.4172  -16.4044  -13.1458 C   0  0  0  0  0  0  0  0  0  0  0  0
  -31.7369  -16.1849   -9.1807 C   0  0  0  0  0  0  0  0  0  0  0  0
  2  7  1  0
  2 11  1  0
  2 14  2  0
  3  7  1  0
  3  9  1  0
  3 12  2  0
  9 11  1  0
 11 13  2  3
  1  7  2  0
  1  8  1  0
  4  9  2  0
  4 10  1  0
  6 14  1  0
  6  8  2  0
  5 12  1  0
  5 10  2  0
 13 15  1  0
  6 16  1  0
 15 17  1  0
 17 18  1  0
 18 19  2  0
 17 20  2  0
 19 21  1  0
 16 22  1  0
 21 23  2  0
 20 24  1  0
 16 25  1  0
 25 26  1  0
 26 27  2  0
 22 28  1  0
 27 28  1  0
 21 29  1  0
 27 30  1  0
 15 31  2  0
 26 32  1  0
 20 33  1  0
 33 34  1  0
 24 35  1  0
 32 36  1  0
 16 37  1  0
 29 38  1  0
 19 39  1  0
 33 39  2  0
 30 40  1  0
 36 40  1  0
 40 41  2  0
 29 42  2  0
 36 43  2  0
 41 44  1  0
 43 45  1  0
 28 46  2  0
 41 47  1  0
 45 47  2  0
 24 48  2  0
 31 48  1  0
M  END
$$$$

     RDKit          3D

 48 57  0  0  0  0  0  0  0  0999 V2000
  -28.1100  -21.1250  -11.7830 C   0  0  0  0  0  0  0  0  0  0  0  0
  -29.1380  -20.1340   -9.8150 C   0  0  0  0  0  0  0  0  0  0  0  0
  -26.8640  -19.6120  -10.1060 C   0  0  0  0  0  0  0  0  0  0  0  0
  -26.3470  -18.1740   -8.1970 C   0  0  0  0  0  0  0  0  0  0  0  0
  -24.6510  -18.7420   -9.8540 C   0  0  0  0  0  0  0  0  0  0  0  0
  -30.4600  -21.5050  -11.2460 C   0  0  0  0  0  0  0  0  0  0  0  0
  -28.0100  -20.3360  -10.6490 C   0  0  0  0  0  0  0  0  0  0  0  0
  -29.3460  -21.7100  -12.0780 C   0  0  0  0  0  0  0  0  0  0  0  0
  -27.2470  -18.9400   -8.9190 C   0  0  0  0  0  0  0  0  0  0  0  0
  -25.0380  -18.0800   -8.6770 C   0  0  0  0  0  0  0  0  0  0  0  0
  -28.6770  -19.2570   -8.7170 C   0  0  0  0  0  0  0  0  0  0  0  0
  -25.5650  -19.5150  -10.5780 C   0  0  0  0  0  0  0  0  0  0  0  0
  -29.5470  -18.7540   -7.5500 C   0  0  0  0  0  0  0  0  0  0  0  0
  -30.3630  -20.7110  -10.1010 C   0  0  0  0  0  0  0  0  0  0  0  0
  -30.2682  -17.6131   -7.7884 C   0  0  0  0  0  0  0  0  0  0  0  0
  -31.8870  -22.2541  -11.5313 C   0  0  0  0  0  0  0  0  0  0  0  0
  -31.0748  -17.2494   -6.6123 C   0  0  0  0  0  0  0  0  0  0  0  0
  -32.7363  -21.5240  -12.0456 N   0  0  0  0  0  0  0  0  0  0  0  0
  -32.2123  -16.5880   -6.7015 C   0  0  0  0  0  0  0  0  0  0  0  0
  -30.4388  -16.8913   -8.9113 C   0  0  0  0  0  0  0  0  0  0  0  0
  -30.8655  -17.8672   -5.3205 C   0  0  0  0  0  0  0  0  0  0  0  0
  -33.2233  -16.3508   -5.7356 C   0  0  0  0  0  0  0  0  0  0  0  0
  -34.3840  -15.6550   -5.9943 O   0  0  0  0  0  0  0  0  0  0  0  0
  -32.9796  -17.0230   -4.5211 C   0  0  0  0  0  0  0  0  0  0  0  0
  -33.9989  -16.9367   -3.4773 O   0  0  0  0  0  0  0  0  0  0  0  0
  -29.6003  -16.8637   -9.9211 C   0  0  0  0  0  0  0  0  0  0  0  0
  -31.8695  -17.8112   -4.3136 C   0  0  0  0  0  0  0  0  0  0  0  0
  -31.6136  -18.3980   -3.0163 O   0  0  0  0  0  0  0  0  0  0  0  0
  -29.8612  -16.0738  -11.0469 C   0  0  0  0  0  0  0  0  0  0  0  0
  -29.0779  -16.1390  -12.1709 C   0  0  0  0  0  0  0  0  0  0  0  0
  -34.5531  -15.0209   -7.0963 C   0  0  0  0  0  0  0  0  0  0  0  0
  -30.8267  -15.0102  -10.7882 C   0  0  0  0  0  0  0  0  0  0  0  0
  -32.9015  -21.0911  -13.2358 C   0  0  0  0  0  0  0  0  0  0  0  0
  -33.6609  -17.1749   -2.2639 C   0  0  0  0  0  0  0  0  0  0  0  0
  -33.8367  -20.9602  -11.2856 C   0  0  0  0  0  0  0  0  0  0  0  0
  -31.5207  -15.0300   -9.8098 C   0  0  0  0  0  0  0  0  0  0  0  0
  -31.7804  -23.4329  -12.5000 O   0  0  0  0  0  0  0  0  0  0  0  0
  -30.9291  -13.9004  -11.7161 O   0  0  0  0  0  0  0  0  0  0  0  0
  -34.7218  -17.0936   -1.4580 C   0  0  0  0  0  0  0  0  0  0  0  0
  -32.6326  -18.1991   -2.1341 C   0  0  0  0  0  0  0  0  0  0  0  0
  -32.4341  -15.7119   -7.9144 N   0  0  0  0  0  0  0  0  0  0  0  0
  -34.5869  -19.9222  -11.9752 C   0  0  0  0  0  0  0  0  0  0  0  0
  -31.5175  -15.8143   -8.8863 C   0  0  0  0  0  0  0  0  0  0  0  0
  -32.7223  -19.1902   -1.1758 C   0  0  0  0  0  0  0  0  0  0  0  0
  -34.0063  -19.2482   -0.5873 C   0  0  0  0  0  0  0  0  0  0  0  0
  -33.4634  -14.8852   -8.1773 C   0  0  0  0  0  0  0  0  0  0  0  0
  -34.9607  -18.1972   -0.6284 C   0  0  0  0  0  0  0  0  0  0  0  0
  -34.0190  -20.0537  -13.4033 C   0  0  0  0  0  0  0  0  0  0  0  0
  2  7  1  0
  2 11  1  0
  2 14  2  0
  3  7  1  0
  3  9  1  0
  3 12  2  0
  9 11  1  0
 11 13  2  3
  1  7  2  0
  1  8  1  0
  4  9  2  0
  4 10  1  0
  6 14  1  0
  6  8  2  0
  5 12  1  0
  5 10  2  0
 13 15  1  0
  6 16  1  0
 15 17  1  0
 16 18  1  0
 17 19  2  0
 15 20  2  0
 17 21  1  0
 19 22  1  0
 22 23  1  0
 22 24  2  0
 24 25  1  0
 20 26  1  0
 21 27  2  0
 24 27  1  0
 27 28  1  0
 26 29  2  0
 29 30  1  0
 23 31  1  0
 29 32  1  0
 18 33  1  0
 25 34  1  0
 18 35  1  0
 32 36  1  0
 16 37  1  0
 32 38  2  0
 34 39  1  0
 28 40  1  0
 34 40  2  0
 19 41  1  0
 35 42  1  0
 20 43  1  0
 36 43  2  0
 41 43  1  0
 40 44  1  0
 44 45  2  0
 31 46  1  0
 41 46  1  0
 39 47  2  0
 45 47  1  0
 33 48  1  0
 42 48  1  0
M  END
$$$$

     RDKit          3D

 49 56  0  0  0  0  0  0  0  0999 V2000
  -28.1100  -21.1250  -11.7830 C   0  0  0  0  0  0  0  0  0  0  0  0
  -29.1380  -20.1340   -9.8150 C   0  0  0  0  0  0  0  0  0  0  0  0
  -26.8640  -19.6120  -10.1060 C   0  0  0  0  0  0  0  0  0  0  0  0
  -26.3470  -18.1740   -8.1970 C   0  0  0  0  0  0  0  0  0  0  0  0
  -24.6510  -18.7420   -9.8540 C   0  0  0  0  0  0  0  0  0  0  0  0
  -30.4600  -21.5050  -11.2460 C   0  0  0  0  0  0  0  0  0  0  0  0
  -28.0100  -20.3360  -10.6490 C   0  0  0  0  0  0  0  0  0  0  0  0
  -29.3460  -21.7100  -12.0780 C   0  0  0  0  0  0  0  0  0  0  0  0
  -27.2470  -18.9400   -8.9190 C   0  0  0  0  0  0  0  0  0  0  0  0
  -25.0380  -18.0800   -8.6770 C   0  0  0  0  0  0  0  0  0  0  0  0
  -28.6770  -19.2570   -8.7170 C   0  0  0  0  0  0  0  0  0  0  0  0
  -25.5650  -19.5150  -10.5780 C   0  0  0  0  0  0  0  0  0  0  0  0
  -29.5470  -18.7540   -7.5500 C   0  0  0  0  0  0  0  0  0  0  0  0
  -30.3630  -20.7110  -10.1010 C   0  0  0  0  0  0  0  0  0  0  0  0
  -30.2682  -17.6131   -7.7884 C   0  0  0  0  0  0  0  0  0  0  0  0
  -31.6351  -22.1828  -11.6616 C   0  0  0  0  0  0  0  0  0  0  0  0
  -31.0673  -17.2422   -6.6095 C   0  0  0  0  0  0  0  0  0  0  0  0
  -30.8352  -17.6300   -5.4844 C   0  0  0  0  0  0  0  0  0  0  0  0
  -31.8425  -17.5181   -4.4068 C   0  0  0  0  0  0  0  0  0  0  0  0
  -32.1307  -16.5826   -6.6226 C   0  0  0  0  0  0  0  0  0  0  0  0
  -31.6243  -18.1297   -3.1096 C   0  0  0  0  0  0  0  0  0  0  0  0
  -32.0763  -22.3605  -12.7922 O   0  0  0  0  0  0  0  0  0  0  0  0
  -30.9718  -17.4917   -2.1840 O   0  0  0  0  0  0  0  0  0  0  0  0
  -32.5117  -15.8566   -8.0492 C   0  0  0  0  0  0  0  0  0  0  0  0
  -32.8162  -21.4357  -10.9214 O   0  0  0  0  0  0  0  0  0  0  0  0
  -33.5668  -20.5980  -11.5867 C   0  0  0  0  0  0  0  0  0  0  0  0
  -33.4618  -20.7939  -13.0257 C   0  0  0  0  0  0  0  0  0  0  0  0
  -32.9237  -21.8861  -13.5897 C   0  0  0  0  0  0  0  0  0  0  0  0
  -32.2302  -19.3626   -2.8077 C   0  0  0  0  0  0  0  0  0  0  0  0
  -34.2623  -19.7305  -13.7568 O   0  0  0  0  0  0  0  0  0  0  0  0
  -33.5684  -15.0987   -8.1004 O   0  0  0  0  0  0  0  0  0  0  0  0
  -31.6220  -16.0021   -9.0396 N   0  0  0  0  0  0  0  0  0  0  0  0
  -32.9807  -16.9255   -4.6781 C   0  0  0  0  0  0  0  0  0  0  0  0
  -32.4051  -19.6842   -1.5759 O   0  0  0  0  0  0  0  0  0  0  0  0
  -31.8681  -15.3531  -10.2297 C   0  0  0  0  0  0  0  0  0  0  0  0
  -34.0745  -19.3990  -11.1423 C   0  0  0  0  0  0  0  0  0  0  0  0
  -34.7122  -18.5281  -12.0355 C   0  0  0  0  0  0  0  0  0  0  0  0
  -35.2649  -17.2818  -11.4117 C   0  0  0  0  0  0  0  0  0  0  0  0
  -31.8698  -23.5269  -10.7919 F   0  0  0  0  0  0  0  0  0  0  0  0
  -30.6391  -16.9649   -8.9722 C   0  0  0  0  0  0  0  0  0  0  0  0
  -33.2327  -16.3003   -5.8947 C   0  0  0  0  0  0  0  0  0  0  0  0
  -34.6817  -18.7556  -13.1723 C   0  0  0  0  0  0  0  0  0  0  0  0
  -35.3327  -17.8271  -14.2092 C   0  0  0  0  0  0  0  0  0  0  0  0
  -32.5795  -20.2168   -3.8085 N   0  0  0  0  0  0  0  0  0  0  0  0
  -35.3041  -18.0895  -15.6069 C   0  0  0  0  0  0  0  0  0  0  0  0
  -30.7963  -14.6435  -10.7116 C   0  0  0  0  0  0  0  0  0  0  0  0
  -33.0517  -22.3188  -14.8012 O   0  0  0  0  0  0  0  0  0  0  0  0
  -35.9460  -16.6645  -13.5527 C   0  0  0  0  0  0  0  0  0  0  0  0
  -35.8545  -16.3663  -12.2575 C   0  0  0  0  0  0  0  0  0  0  0  0
  2  7  1  0
  2 11  1  0
  2 14  2  0
  3  7  1  0
  3  9  1  0
  3 12  2  0
  9 11  1  0
 11 13  2  3
  1  7  2  0
  1  8  1  0
  4  9  2  0
  4 10  1  0
  6 14  1  0
  6  8  2  0
  5 12  1  0
  5 10  2  0
 13 15  1  0
  6 16  1  0
 15 17  1  0
 17 18  1  0
 18 19  2  0
 17 20  2  0
 19 21  1  0
 16 22  1  0
 21 23  2  0
 20 24  1  0
 16 25  1  0
 25 26  1  0
 26 27  2  0
 22 28  1  0
 27 28  1  0
 21 29  1  0
 27 30  1  0
 24 31  2  0
 24 32  1  0
 19 33  1  0
 29 34  2  0
 32 35  1  0
 26 36  1  0
 36 37  1  0
 37 38  2  0
 16 39  1  0
 15 40  2  0
 32 40  1  0
 20 41  1  0
 33 41  2  0
 30 42  1  0
 37 42  1  0
 42 43  2  0
 29 44  1  0
 43 45  1  0
 35 46  1  0
 28 47  2  0
 43 48  1  0
 38 49  1  0
 48 49  2  0
M  END
$$$$

     RDKit          3D

 49 56  0  0  0  0  0  0  0  0999 V2000
  -28.1100  -21.1250  -11.7830 C   0  0  0  0  0  0  0  0  0  0  0  0
  -29.1380  -20.1340   -9.8150 C   0  0  0  0  0  0  0  0  0  0  0  0
  -26.8640  -19.6120  -10.1060 C   0  0  0  0  0  0  0  0  0  0  0  0
  -26.3470  -18.1740   -8.1970 C   0  0  0  0  0  0  0  0  0  0  0  0
  -24.6510  -18.7420   -9.8540 C   0  0  0  0  0  0  0  0  0  0  0  0
  -30.4600  -21.5050  -11.2460 C   0  0  0  0  0  0  0  0  0  0  0  0
  -28.0100  -20.3360  -10.6490 C   0  0  0  0  0  0  0  0  0  0  0  0
  -29.3460  -21.7100  -12.0780 C   0  0  0  0  0  0  0  0  0  0  0  0
  -27.2470  -18.9400   -8.9190 C   0  0  0  0  0  0  0  0  0  0  0  0
  -25.0380  -18.0800   -8.6770 C   0  0  0  0  0  0  0  0  0  0  0  0
  -28.6770  -19.2570   -8.7170 C   0  0  0  0  0  0  0  0  0  0  0  0
  -25.5650  -19.5150  -10.5780 C   0  0  0  0  0  0  0  0  0  0  0  0
  -29.5470  -18.7540   -7.5500 C   0  0  0  0  0  0  0  0  0  0  0  0
  -30.3630  -20.7110  -10.1010 C   0  0  0  0  0  0  0  0  0  0  0  0
  -30.2682  -17.6131   -7.7884 C   0  0  0  0  0  0  0  0  0  0  0  0
  -31.6351  -22.1828  -11.6616 C   0  0  0  0  0  0  0  0  0  0  0  0
  -31.0673  -17.2422   -6.6095 C   0  0  0  0  0  0  0  0  0  0  0  0
  -30.8352  -17.6300   -5.4844 C   0  0  0  0  0  0  0  0  0  0  0  0
  -31.8425  -17.5181   -4.4068 C   0  0  0  0  0  0  0  0  0  0  0  0
  -32.1307  -16.5826   -6.6226 C   0  0  0  0  0  0  0  0  0  0  0  0
  -31.6243  -18.1297   -3.1096 C   0  0  0  0  0  0  0  0  0  0  0  0
  -32.0763  -22.3605  -12.7922 O   0  0  0  0  0  0  0  0  0  0  0  0
  -30.9718  -17.4917   -2.1840 O   0  0  0  0  0  0  0  0  0  0  0  0
  -32.5117  -15.8566   -8.0492 C   0  0  0  0  0  0  0  0  0  0  0  0
  -32.8162  -21.4357  -10.9214 O   0  0  0  0  0  0  0  0  0  0  0  0
  -33.5668  -20.5980  -11.5867 C   0  0  0  0  0  0  0  0  0  0  0  0
  -33.4618  -20.7939  -13.0257 C   0  0  0  0  0  0  0  0  0  0  0  0
  -32.9237  -21.8861  -13.5897 C   0  0  0  0  0  0  0  0  0  0  0  0
  -32.2302  -19.3626   -2.8077 C   0  0  0  0  0  0  0  0  0  0  0  0
  -34.2623  -19.7305  -13.7568 O   0  0  0  0  0  0  0  0  0  0  0  0
  -33.5684  -15.0987   -8.1004 O   0  0  0  0  0  0  0  0  0  0  0  0
  -31.6220  -16.0021   -9.0396 N   0  0  0  0  0  0  0  0  0  0  0  0
  -32.9807  -16.9255   -4.6781 C   0  0  0  0  0  0  0  0  0  0  0  0
  -32.4051  -19.6842   -1.5759 O   0  0  0  0  0  0  0  0  0  0  0  0
  -31.8681  -15.3531  -10.2297 C   0  0  0  0  0  0  0  0  0  0  0  0
  -34.0745  -19.3990  -11.1423 C   0  0  0  0  0  0  0  0  0  0  0  0
  -34.7122  -18.5281  -12.0355 C   0  0  0  0  0  0  0  0  0  0  0  0
  -35.2649  -17.2818  -11.4117 C   0  0  0  0  0  0  0  0  0  0  0  0
  -31.8698  -23.5269  -10.7919 F   0  0  0  0  0  0  0  0  0  0  0  0
  -32.5629  -20.2218   -3.8183 N   0  0  0  0  0  0  0  0  0  0  0  0
  -30.5163  -16.9329   -9.0046 C   0  0  0  0  0  0  0  0  0  0  0  0
  -34.7298  -18.6974  -13.3609 C   0  0  0  0  0  0  0  0  0  0  0  0
  -35.2279  -17.6763  -14.0884 O   0  0  0  0  0  0  0  0  0  0  0  0
  -34.0708  -19.2312   -9.7284 C   0  0  0  0  0  0  0  0  0  0  0  0
  -33.9643  -16.7192   -3.6250 C   0  0  0  0  0  0  0  0  0  0  0  0
  -35.2440  -17.0806  -10.0255 C   0  0  0  0  0  0  0  0  0  0  0  0
  -34.6720  -18.0213   -9.2382 C   0  0  0  0  0  0  0  0  0  0  0  0
  -32.5149  -21.8162  -14.9321 C   0  0  0  0  0  0  0  0  0  0  0  0
  -33.1464  -16.4933   -5.9405 C   0  0  0  0  0  0  0  0  0  0  0  0
  2  7  1  0
  2 11  1  0
  2 14  2  0
  3  7  1  0
  3  9  1  0
  3 12  2  0
  9 11  1  0
 11 13  2  3
  1  7  2  0
  1  8  1  0
  4  9  2  0
  4 10  1  0
  6 14  1  0
  6  8  2  0
  5 12  1  0
  5 10  2  0
 13 15  1  0
  6 16  1  0
 15 17  1  0
 17 18  1  0
 18 19  2  0
 17 20  2  0
 19 21  1  0
 16 22  1  0
 21 23  2  0
 20 24  1  0
 16 25  1  0
 25 26  1  0
 26 27  2  0
 22 28  1  0
 27 28  1  0
 21 29  1  0
 27 30  1  0
 24 31  2  0
 24 32  1  0
 19 33  1  0
 29 34  2  0
 32 35  1  0
 26 36  1  0
 36 37  1  0
 37 38  2  0
 16 39  1  0
 29 40  1  0
 15 41  2  0
 32 41  1  0
 30 42  1  0
 37 42  1  0
 42 43  2  0
 36 44  2  0
 33 45  1  0
 38 46  1  0
 44 47  1  0
 46 47  2  0
 28 48  1  0
 20 49  1  0
 33 49  2  0
M  END
$$$$

     RDKit          3D

 50 57  0  0  0  0  0  0  0  0999 V2000
  -28.1100  -21.1250  -11.7830 C   0  0  0  0  0  0  0  0  0  0  0  0
  -29.1380  -20.1340   -9.8150 C   0  0  0  0  0  0  0  0  0  0  0  0
  -26.8640  -19.6120  -10.1060 C   0  0  0  0  0  0  0  0  0  0  0  0
  -26.3470  -18.1740   -8.1970 C   0  0  0  0  0  0  0  0  0  0  0  0
  -24.6510  -18.7420   -9.8540 C   0  0  0  0  0  0  0  0  0  0  0  0
  -30.4600  -21.5050  -11.2460 C   0  0  0  0  0  0  0  0  0  0  0  0
  -28.0100  -20.3360  -10.6490 C   0  0  0  0  0  0  0  0  0  0  0  0
  -29.3460  -21.7100  -12.0780 C   0  0  0  0  0  0  0  0  0  0  0  0
  -27.2470  -18.9400   -8.9190 C   0  0  0  0  0  0  0  0  0  0  0  0
  -25.0380  -18.0800   -8.6770 C   0  0  0  0  0  0  0  0  0  0  0  0
  -28.6770  -19.2570   -8.7170 C   0  0  0  0  0  0  0  0  0  0  0  0
  -25.5650  -19.5150  -10.5780 C   0  0  0  0  0  0  0  0  0  0  0  0
  -29.5470  -18.7540   -7.5500 C   0  0  0  0  0  0  0  0  0  0  0  0
  -30.3630  -20.7110  -10.1010 C   0  0  0  0  0  0  0  0  0  0  0  0
  -30.2682  -17.6131   -7.7884 C   0  0  0  0  0  0  0  0  0  0  0  0
  -31.6351  -22.1828  -11.6616 C   0  0  0  0  0  0  0  0  0  0  0  0
  -31.0673  -17.2422   -6.6095 C   0  0  0  0  0  0  0  0  0  0  0  0
  -30.8352  -17.6300   -5.4844 C   0  0  0  0  0  0  0  0  0  0  0  0
  -31.8425  -17.5181   -4.4068 C   0  0  0  0  0  0  0  0  0  0  0  0
  -32.1307  -16.5826   -6.6226 C   0  0  0  0  0  0  0  0  0  0  0  0
  -31.6243  -18.1297   -3.1096 C   0  0  0  0  0  0  0  0  0  0  0  0
  -32.0763  -22.3605  -12.7922 O   0  0  0  0  0  0  0  0  0  0  0  0
  -30.9718  -17.4917   -2.1840 O   0  0  0  0  0  0  0  0  0  0  0  0
  -32.5117  -15.8566   -8.0492 C   0  0  0  0  0  0  0  0  0  0  0  0
  -32.8162  -21.4357  -10.9214 O   0  0  0  0  0  0  0  0  0  0  0  0
  -33.5668  -20.5980  -11.5867 C   0  0  0  0  0  0  0  0  0  0  0  0
  -33.4618  -20.7939  -13.0257 C   0  0  0  0  0  0  0  0  0  0  0  0
  -32.9237  -21.8861  -13.5897 C   0  0  0  0  0  0  0  0  0  0  0  0
  -32.2302  -19.3626   -2.8077 C   0  0  0  0  0  0  0  0  0  0  0  0
  -34.2623  -19.7305  -13.7568 O   0  0  0  0  0  0  0  0  0  0  0  0
  -30.6238  -16.9835   -9.0668 C   0  0  0  0  0  0  0  0  0  0  0  0
  -34.4509  -19.9595  -10.9429 C   0  0  0  0  0  0  0  0  0  0  0  0
  -32.9494  -16.1998   -5.5422 C   0  0  0  0  0  0  0  0  0  0  0  0
  -34.1499  -15.3026   -5.7909 O   0  0  0  0  0  0  0  0  0  0  0  0
  -33.5648  -15.0267   -8.2113 O   0  0  0  0  0  0  0  0  0  0  0  0
  -35.1403  -18.8763  -11.7415 C   0  0  0  0  0  0  0  0  0  0  0  0
  -31.8523  -23.5331  -10.8365 F   0  0  0  0  0  0  0  0  0  0  0  0
  -32.5460  -20.3614   -3.7839 O   0  0  0  0  0  0  0  0  0  0  0  0
  -32.8908  -16.6383   -4.4000 C   0  0  0  0  0  0  0  0  0  0  0  0
  -34.7775  -18.9068  -12.9099 C   0  0  0  0  0  0  0  0  0  0  0  0
  -34.8241  -17.6261  -13.6934 C   0  0  0  0  0  0  0  0  0  0  0  0
  -35.4455  -16.4967  -13.0933 C   0  0  0  0  0  0  0  0  0  0  0  0
  -35.5895  -17.7779  -10.9945 C   0  0  0  0  0  0  0  0  0  0  0  0
  -33.0252  -22.2652  -14.8227 O   0  0  0  0  0  0  0  0  0  0  0  0
  -35.5757  -15.2669  -13.7386 O   0  0  0  0  0  0  0  0  0  0  0  0
  -32.4440  -19.9704   -1.6615 O   0  0  0  0  0  0  0  0  0  0  0  0
  -31.6845  -16.1095   -9.1619 C   0  0  0  0  0  0  0  0  0  0  0  0
  -36.0578  -17.8363   -9.6773 O   0  0  0  0  0  0  0  0  0  0  0  0
  -35.8353  -16.5530  -11.6717 C   0  0  0  0  0  0  0  0  0  0  0  0
  -36.5912  -16.8395   -9.0010 C   0  0  0  0  0  0  0  0  0  0  0  0
  2  7  1  0
  2 11  1  0
  2 14  2  0
  3  7  1  0
  3  9  1  0
  3 12  2  0
  9 11  1  0
 11 13  2  3
  1  7  2  0
  1  8  1  0
  4  9  2  0
  4 10  1  0
  6 14  1  0
  6  8  2  0
  5 12  1  0
  5 10  2  0
 13 15  1  0
  6 16  1  0
 15 17  1  0
 17 18  1  0
 18 19  2  0
 17 20  2  0
 19 21  1  0
 16 22  1  0
 21 23  2  0
 20 24  1  0
 16 25  1  0
 25 26  1  0
 26 27  2  0
 22 28  1  0
 27 28  1  0
 21 29  1  0
 27 30  1  0
 15 31  2  0
 26 32  1  0
 20 33  1  0
 33 34  1  0
 24 35  1  0
 32 36  1  0
 16 37  1  0
 29 38  1  0
 19 39  1  0
 33 39  2  0
 30 40  1  0
 36 40  1  0
 40 41  2  0
 41 42  1  0
 36 43  2  0
 28 44  2  0
 42 45  1  0
 29 46  2  0
 24 47  2  0
 31 47  1  0
 43 48  1  0
 42 49  2  0
 43 49  1  0
 48 50  1  0
M  END
$$$$

     RDKit          3D

 50 57  0  0  0  0  0  0  0  0999 V2000
  -28.1100  -21.1250  -11.7830 C   0  0  0  0  0  0  0  0  0  0  0  0
  -29.1380  -20.1340   -9.8150 C   0  0  0  0  0  0  0  0  0  0  0  0
  -26.8640  -19.6120  -10.1060 C   0  0  0  0  0  0  0  0  0  0  0  0
  -26.3470  -18.1740   -8.1970 C   0  0  0  0  0  0  0  0  0  0  0  0
  -24.6510  -18.7420   -9.8540 C   0  0  0  0  0  0  0  0  0  0  0  0
  -30.4600  -21.5050  -11.2460 C   0  0  0  0  0  0  0  0  0  0  0  0
  -28.0100  -20.3360  -10.6490 C   0  0  0  0  0  0  0  0  0  0  0  0
  -29.3460  -21.7100  -12.0780 C   0  0  0  0  0  0  0  0  0  0  0  0
  -27.2470  -18.9400   -8.9190 C   0  0  0  0  0  0  0  0  0  0  0  0
  -25.0380  -18.0800   -8.6770 C   0  0  0  0  0  0  0  0  0  0  0  0
  -28.6770  -19.2570   -8.7170 C   0  0  0  0  0  0  0  0  0  0  0  0
  -25.5650  -19.5150  -10.5780 C   0  0  0  0  0  0  0  0  0  0  0  0
  -29.5470  -18.7540   -7.5500 C   0  0  0  0  0  0  0  0  0  0  0  0
  -30.3630  -20.7110  -10.1010 C   0  0  0  0  0  0  0  0  0  0  0  0
  -31.8812  -22.2717  -11.5420 C   0  0  0  0  0  0  0  0  0  0  0  0
  -31.7580  -23.4881  -11.8835 O   0  0  0  0  0  0  0  0  0  0  0  0
  -32.5774  -21.4786  -12.5249 C   0  0  0  0  0  0  0  0  0  0  0  0
  -32.3290  -21.6768  -13.7984 O   0  0  0  0  0  0  0  0  0  0  0  0
  -30.2298  -17.5806   -7.7814 C   0  0  0  0  0  0  0  0  0  0  0  0
  -31.0325  -17.2146   -6.6067 C   0  0  0  0  0  0  0  0  0  0  0  0
  -30.7945  -17.5228   -5.4748 C   0  0  0  0  0  0  0  0  0  0  0  0
  -31.7946  -17.4083   -4.4180 C   0  0  0  0  0  0  0  0  0  0  0  0
  -33.2022  -20.3682  -12.3212 O   0  0  0  0  0  0  0  0  0  0  0  0
  -33.1079  -17.2204   -4.6813 C   0  0  0  0  0  0  0  0  0  0  0  0
  -33.3087  -19.1386  -12.8887 C   0  0  0  0  0  0  0  0  0  0  0  0
  -31.4345  -17.8806   -3.0189 C   0  0  0  0  0  0  0  0  0  0  0  0
  -33.2866  -18.0946  -12.0554 C   0  0  0  0  0  0  0  0  0  0  0  0
  -33.6461  -18.2156  -10.8038 O   0  0  0  0  0  0  0  0  0  0  0  0
  -32.4600  -16.8677   -6.9554 C   0  0  0  0  0  0  0  0  0  0  0  0
  -30.5867  -17.0421   -2.3707 O   0  0  0  0  0  0  0  0  0  0  0  0
  -34.1207  -17.2332   -3.6927 C   0  0  0  0  0  0  0  0  0  0  0  0
  -32.3439  -17.1426  -12.2531 C   0  0  0  0  0  0  0  0  0  0  0  0
  -32.5103  -18.1322   -2.0097 C   0  0  0  0  0  0  0  0  0  0  0  0
  -32.5046  -19.3228   -1.6540 O   0  0  0  0  0  0  0  0  0  0  0  0
  -33.4554  -16.9114   -5.9983 C   0  0  0  0  0  0  0  0  0  0  0  0
  -33.9458  -17.9712   -2.6222 C   0  0  0  0  0  0  0  0  0  0  0  0
  -31.9766  -16.7067  -13.5983 C   0  0  0  0  0  0  0  0  0  0  0  0
  -31.2303  -15.5009  -13.8339 C   0  0  0  0  0  0  0  0  0  0  0  0
  -32.0433  -17.7978  -14.4987 C   0  0  0  0  0  0  0  0  0  0  0  0
  -31.5059  -17.5432  -15.8098 C   0  0  0  0  0  0  0  0  0  0  0  0
  -34.3738  -19.4017   -2.9127 O   0  0  0  0  0  0  0  0  0  0  0  0
  -33.2561  -20.3153   -2.8648 C   0  0  0  0  0  0  0  0  0  0  0  0
  -32.6019  -19.0682  -14.1898 C   0  0  0  0  0  0  0  0  0  0  0  0
  -31.1458  -14.5056  -12.9250 O   0  0  0  0  0  0  0  0  0  0  0  0
  -31.6027  -18.4357  -16.8021 O   0  0  0  0  0  0  0  0  0  0  0  0
  -30.8564  -15.2367  -15.0752 C   0  0  0  0  0  0  0  0  0  0  0  0
  -30.9355  -16.2858  -16.0790 N   0  0  0  0  0  0  0  0  0  0  0  0
  -32.3633  -20.3406   -2.4377 C   0  0  0  0  0  0  0  0  0  0  0  0
  -30.5221  -16.0291  -17.4350 O   0  0  0  0  0  0  0  0  0  0  0  0
  -34.8614  -17.6377  -10.4643 C   0  0  0  0  0  0  0  0  0  0  0  0
  2  7  1  0
  2 11  1  0
  2 14  2  0
  3  7  1  0
  3  9  1  0
  3 12  2  0
  9 11  1  0
 11 13  2  3
  1  7  2  0
  1  8  1  0
  4  9  2  0
  4 10  1  0
  6 14  1  0
  6  8  2  0
  5 12  1  0
  5 10  2  0
  6 15  1  0
 15 16  1  0
 15 17  1  0
 17 18  2  0
 13 19  1  0
 19 20  1  0
 20 21  1  0
 21 22  2  0
 17 23  1  0
 22 24  1  0
 23 25  1  0
 22 26  1  0
 25 27  1  0
 27 28  1  0
 20 29  2  0
 26 30  1  0
 24 31  1  0
 27 32  2  0
 26 33  1  0
 33 34  1  0
 24 35  2  0
 29 35  1  0
 31 36  1  0
 33 36  1  0
 32 37  1  0
 37 38  1  0
 37 39  2  0
 39 40  1  0
 36 41  1  0
 41 42  1  0
 25 43  2  0
 39 43  1  0
 38 44  1  0
 40 45  2  0
 38 46  2  0
 40 47  1  0
 46 47  1  0
 34 48  1  0
 42 48  1  0
 47 49  1  0
 28 50  1  0
M  END
$$$$

     RDKit          3D

 53 61  0  0  0  0  0  0  0  0999 V2000
  -28.1100  -21.1250  -11.7830 C   0  0  0  0  0  0  0  0  0  0  0  0
  -29.1380  -20.1340   -9.8150 C   0  0  0  0  0  0  0  0  0  0  0  0
  -26.8640  -19.6120  -10.1060 C   0  0  0  0  0  0  0  0  0  0  0  0
  -26.3470  -18.1740   -8.1970 C   0  0  0  0  0  0  0  0  0  0  0  0
  -24.6510  -18.7420   -9.8540 C   0  0  0  0  0  0  0  0  0  0  0  0
  -30.4600  -21.5050  -11.2460 C   0  0  0  0  0  0  0  0  0  0  0  0
  -28.0100  -20.3360  -10.6490 C   0  0  0  0  0  0  0  0  0  0  0  0
  -29.3460  -21.7100  -12.0780 C   0  0  0  0  0  0  0  0  0  0  0  0
  -27.2470  -18.9400   -8.9190 C   0  0  0  0  0  0  0  0  0  0  0  0
  -25.0380  -18.0800   -8.6770 C   0  0  0  0  0  0  0  0  0  0  0  0
  -28.6770  -19.2570   -8.7170 C   0  0  0  0  0  0  0  0  0  0  0  0
  -25.5650  -19.5150  -10.5780 C   0  0  0  0  0  0  0  0  0  0  0  0
  -29.5470  -18.7540   -7.5500 C   0  0  0  0  0  0  0  0  0  0  0  0
  -30.3630  -20.7110  -10.1010 C   0  0  0  0  0  0  0  0  0  0  0  0
  -30.2682  -17.6131   -7.7884 C   0  0  0  0  0  0  0  0  0  0  0  0
  -31.8870  -22.2541  -11.5313 C   0  0  0  0  0  0  0  0  0  0  0  0
  -31.0748  -17.2494   -6.6123 C   0  0  0  0  0  0  0  0  0  0  0  0
  -32.7363  -21.5240  -12.0456 N   0  0  0  0  0  0  0  0  0  0  0  0
  -32.2123  -16.5880   -6.7015 C   0  0  0  0  0  0  0  0  0  0  0  0
  -30.4388  -16.8913   -8.9113 C   0  0  0  0  0  0  0  0  0  0  0  0
  -30.8655  -17.8672   -5.3205 C   0  0  0  0  0  0  0  0  0  0  0  0
  -33.2233  -16.3508   -5.7356 C   0  0  0  0  0  0  0  0  0  0  0  0
  -34.3840  -15.6550   -5.9943 O   0  0  0  0  0  0  0  0  0  0  0  0
  -32.9796  -17.0230   -4.5211 C   0  0  0  0  0  0  0  0  0  0  0  0
  -33.9989  -16.9367   -3.4773 O   0  0  0  0  0  0  0  0  0  0  0  0
  -29.6003  -16.8637   -9.9211 C   0  0  0  0  0  0  0  0  0  0  0  0
  -31.8695  -17.8112   -4.3136 C   0  0  0  0  0  0  0  0  0  0  0  0
  -31.6136  -18.3980   -3.0163 O   0  0  0  0  0  0  0  0  0  0  0  0
  -29.8612  -16.0738  -11.0469 C   0  0  0  0  0  0  0  0  0  0  0  0
  -29.0779  -16.1390  -12.1709 C   0  0  0  0  0  0  0  0  0  0  0  0
  -34.5531  -15.0209   -7.0963 C   0  0  0  0  0  0  0  0  0  0  0  0
  -30.8267  -15.0102  -10.7882 C   0  0  0  0  0  0  0  0  0  0  0  0
  -32.9015  -21.0911  -13.2358 C   0  0  0  0  0  0  0  0  0  0  0  0
  -33.6609  -17.1749   -2.2639 C   0  0  0  0  0  0  0  0  0  0  0  0
  -33.8367  -20.9602  -11.2856 C   0  0  0  0  0  0  0  0  0  0  0  0
  -31.5207  -15.0300   -9.8098 C   0  0  0  0  0  0  0  0  0  0  0  0
  -31.7804  -23.4329  -12.5000 O   0  0  0  0  0  0  0  0  0  0  0  0
  -30.9291  -13.9004  -11.7161 O   0  0  0  0  0  0  0  0  0  0  0  0
  -34.7218  -17.0936   -1.4580 C   0  0  0  0  0  0  0  0  0  0  0  0
  -32.6326  -18.1991   -2.1341 C   0  0  0  0  0  0  0  0  0  0  0  0
  -34.4744  -17.5764   -0.0927 C   0  0  0  0  0  0  0  0  0  0  0  0
  -31.5366  -15.8448   -8.9350 C   0  0  0  0  0  0  0  0  0  0  0  0
  -33.7410  -20.3916  -13.6960 C   0  0  0  0  0  0  0  0  0  0  0  0
  -34.4879  -19.9163  -12.8635 C   0  0  0  0  0  0  0  0  0  0  0  0
  -35.6343  -18.8507  -13.3738 N   0  0  0  0  0  0  0  0  0  0  0  0
  -35.4720  -17.2924    0.9537 C   0  0  0  0  0  0  0  0  0  0  0  0
  -32.4340  -15.7885   -7.8122 O   0  0  0  0  0  0  0  0  0  0  0  0
  -34.7157  -20.1302  -11.6267 N   0  0  0  0  0  0  0  0  0  0  0  0
  -32.1104  -21.9742  -14.1009 O   0  0  0  0  0  0  0  0  0  0  0  0
  -33.4435  -18.4257    0.2091 C   0  0  0  0  0  0  0  0  0  0  0  0
  -36.3810  -16.4236    0.7789 O   0  0  0  0  0  0  0  0  0  0  0  0
  -32.5672  -18.7992   -0.8643 C   0  0  0  0  0  0  0  0  0  0  0  0
  -35.1998  -17.4765    2.2341 O   0  0  0  0  0  0  0  0  0  0  0  0
  2  7  1  0
  2 11  1  0
  2 14  2  0
  3  7  1  0
  3  9  1  0
  3 12  2  0
  9 11  1  0
 11 13  2  3
  1  7  2  0
  1  8  1  0
  4  9  2  0
  4 10  1  0
  6 14  1  0
  6  8  2  0
  5 12  1  0
  5 10  2  0
 13 15  1  0
  6 16  1  0
 15 17  1  0
 16 18  1  0
 17 19  2  0
 15 20  2  0
 17 21  1  0
 19 22  1  0
 22 23  1  0
 22 24  2  0
 24 25  1  0
 20 26  1  0
 21 27  2  0
 24 27  1  0
 27 28  1  0
 26 29  2  0
 29 30  1  0
 23 31  1  0
 29 32  1  0
 18 33  1  0
 25 34  1  0
 18 35  1  0
 32 36  1  0
 16 37  1  0
 32 38  2  0
 34 39  1  0
 28 40  1  0
 34 40  2  0
 39 41  2  0
 20 42  1  0
 36 42  2  0
 33 43  1  0
 43 44  2  0
 44 45  1  0
 41 46  1  0
 19 47  1  0
 42 47  1  0
 35 48  2  0
 44 48  1  0
 33 49  2  0
 41 50  1  0
 46 51  2  0
 40 52  1  0
 50 52  2  0
 46 53  1  0
M  END
$$$$

     RDKit          3D

 53 63  0  0  0  0  0  0  0  0999 V2000
  -28.1100  -21.1250  -11.7830 C   0  0  0  0  0  0  0  0  0  0  0  0
  -29.1380  -20.1340   -9.8150 C   0  0  0  0  0  0  0  0  0  0  0  0
  -26.8640  -19.6120  -10.1060 C   0  0  0  0  0  0  0  0  0  0  0  0
  -26.3470  -18.1740   -8.1970 C   0  0  0  0  0  0  0  0  0  0  0  0
  -24.6510  -18.7420   -9.8540 C   0  0  0  0  0  0  0  0  0  0  0  0
  -30.4600  -21.5050  -11.2460 C   0  0  0  0  0  0  0  0  0  0  0  0
  -28.0100  -20.3360  -10.6490 C   0  0  0  0  0  0  0  0  0  0  0  0
  -29.3460  -21.7100  -12.0780 C   0  0  0  0  0  0  0  0  0  0  0  0
  -27.2470  -18.9400   -8.9190 C   0  0  0  0  0  0  0  0  0  0  0  0
  -25.0380  -18.0800   -8.6770 C   0  0  0  0  0  0  0  0  0  0  0  0
  -28.6770  -19.2570   -8.7170 C   0  0  0  0  0  0  0  0  0  0  0  0
  -25.5650  -19.5150  -10.5780 C   0  0  0  0  0  0  0  0  0  0  0  0
  -29.5470  -18.7540   -7.5500 C   0  0  0  0  0  0  0  0  0  0  0  0
  -30.3630  -20.7110  -10.1010 C   0  0  0  0  0  0  0  0  0  0  0  0
  -30.2682  -17.6131   -7.7884 C   0  0  0  0  0  0  0  0  0  0  0  0
  -31.8870  -22.2541  -11.5313 C   0  0  0  0  0  0  0  0  0  0  0  0
  -31.0748  -17.2494   -6.6123 C   0  0  0  0  0  0  0  0  0  0  0  0
  -32.7363  -21.5240  -12.0456 N   0  0  0  0  0  0  0  0  0  0  0  0
  -32.2123  -16.5880   -6.7015 C   0  0  0  0  0  0  0  0  0  0  0  0
  -30.4388  -16.8913   -8.9113 C   0  0  0  0  0  0  0  0  0  0  0  0
  -30.8655  -17.8672   -5.3205 C   0  0  0  0  0  0  0  0  0  0  0  0
  -33.2233  -16.3508   -5.7356 C   0  0  0  0  0  0  0  0  0  0  0  0
  -34.3840  -15.6550   -5.9943 O   0  0  0  0  0  0  0  0  0  0  0  0
  -32.9796  -17.0230   -4.5211 C   0  0  0  0  0  0  0  0  0  0  0  0
  -33.9989  -16.9367   -3.4773 O   0  0  0  0  0  0  0  0  0  0  0  0
  -29.6003  -16.8637   -9.9211 C   0  0  0  0  0  0  0  0  0  0  0  0
  -31.8695  -17.8112   -4.3136 C   0  0  0  0  0  0  0  0  0  0  0  0
  -31.6136  -18.3980   -3.0163 O   0  0  0  0  0  0  0  0  0  0  0  0
  -29.8612  -16.0738  -11.0469 C   0  0  0  0  0  0  0  0  0  0  0  0
  -29.0779  -16.1390  -12.1709 C   0  0  0  0  0  0  0  0  0  0  0  0
  -34.5531  -15.0209   -7.0963 C   0  0  0  0  0  0  0  0  0  0  0  0
  -30.8267  -15.0102  -10.7882 C   0  0  0  0  0  0  0  0  0  0  0  0
  -32.9015  -21.0911  -13.2358 C   0  0  0  0  0  0  0  0  0  0  0  0
  -33.6609  -17.1749   -2.2639 C   0  0  0  0  0  0  0  0  0  0  0  0
  -33.8367  -20.9602  -11.2856 C   0  0  0  0  0  0  0  0  0  0  0  0
  -32.8183  -18.5172   -2.1451 C   0  0  0  0  0  0  0  0  0  0  0  0
  -31.0821  -14.0375  -11.8222 C   0  0  0  0  0  0  0  0  0  0  0  0
  -31.7434  -15.1676   -9.7460 C   0  0  0  0  0  0  0  0  0  0  0  0
  -31.5002  -15.9804   -8.7917 N   0  0  0  0  0  0  0  0  0  0  0  0
  -32.3562  -15.7731   -7.7744 C   0  0  0  0  0  0  0  0  0  0  0  0
  -31.9342  -13.0115  -11.6427 O   0  0  0  0  0  0  0  0  0  0  0  0
  -31.9955  -23.5297  -11.4109 O   0  0  0  0  0  0  0  0  0  0  0  0
  -30.1355  -14.0586  -12.8511 N   0  0  0  0  0  0  0  0  0  0  0  0
  -33.9408  -20.3379  -13.8316 C   0  0  0  0  0  0  0  0  0  0  0  0
  -34.6013  -19.8699  -12.7040 C   0  0  0  0  0  0  0  0  0  0  0  0
  -33.0087  -19.8748   -2.5543 C   0  0  0  0  0  0  0  0  0  0  0  0
  -30.3215  -12.9639  -13.8205 C   0  0  0  0  0  0  0  0  0  0  0  0
  -29.1948  -14.9969  -13.1395 C   0  0  0  0  0  0  0  0  0  0  0  0
  -33.5703  -15.2527   -8.3475 C   0  0  0  0  0  0  0  0  0  0  0  0
  -35.7221  -14.6805   -7.3400 O   0  0  0  0  0  0  0  0  0  0  0  0
  -33.1110  -14.5569   -9.4481 C   0  0  0  0  0  0  0  0  0  0  0  0
  -32.6863  -20.4658   -3.6697 O   0  0  0  0  0  0  0  0  0  0  0  0
  -34.8655  -17.4171   -1.4167 C   0  0  0  0  0  0  0  0  0  0  0  0
  2  7  1  0
  2 11  1  0
  2 14  2  0
  3  7  1  0
  3  9  1  0
  3 12  2  0
  9 11  1  0
 11 13  2  3
  1  7  2  0
  1  8  1  0
  4  9  2  0
  4 10  1  0
  6 14  1  0
  6  8  2  0
  5 12  1  0
  5 10  2  0
 13 15  1  0
  6 16  1  0
 15 17  1  0
 16 18  1  0
 17 19  2  0
 15 20  2  0
 17 21  1  0
 19 22  1  0
 22 23  1  0
 22 24  2  0
 24 25  1  0
 20 26  1  0
 21 27  2  0
 24 27  1  0
 27 28  1  0
 26 29  2  0
 29 30  1  0
 23 31  1  0
 29 32  1  0
 18 33  1  0
 25 34  1  0
 18 35  1  0
 28 36  1  0
 34 36  1  0
 32 37  1  0
 32 38  2  0
 20 39  1  0
 38 39  1  0
 19 40  1  0
 39 40  1  0
 37 41  2  0
 16 42  2  0
 37 43  1  0
 33 44  1  0
 35 45  1  0
 44 45  1  0
 36 46  1  0
 43 47  1  0
 30 48  2  0
 43 48  1  0
 31 49  1  0
 40 49  2  0
 31 50  2  0
 38 51  1  0
 49 51  1  0
 46 52  1  0
 34 53  1  0
M  END
$$$$

     RDKit          3D

 53 62  0  0  0  0  0  0  0  0999 V2000
  -28.1100  -21.1250  -11.7830 C   0  0  0  0  0  0  0  0  0  0  0  0
  -29.1380  -20.1340   -9.8150 C   0  0  0  0  0  0  0  0  0  0  0  0
  -26.8640  -19.6120  -10.1060 C   0  0  0  0  0  0  0  0  0  0  0  0
  -26.3470  -18.1740   -8.1970 C   0  0  0  0  0  0  0  0  0  0  0  0
  -24.6510  -18.7420   -9.8540 C   0  0  0  0  0  0  0  0  0  0  0  0
  -30.4600  -21.5050  -11.2460 C   0  0  0  0  0  0  0  0  0  0  0  0
  -28.0100  -20.3360  -10.6490 C   0  0  0  0  0  0  0  0  0  0  0  0
  -29.3460  -21.7100  -12.0780 C   0  0  0  0  0  0  0  0  0  0  0  0
  -27.2470  -18.9400   -8.9190 C   0  0  0  0  0  0  0  0  0  0  0  0
  -25.0380  -18.0800   -8.6770 C   0  0  0  0  0  0  0  0  0  0  0  0
  -28.6770  -19.2570   -8.7170 C   0  0  0  0  0  0  0  0  0  0  0  0
  -25.5650  -19.5150  -10.5780 C   0  0  0  0  0  0  0  0  0  0  0  0
  -29.5470  -18.7540   -7.5500 C   0  0  0  0  0  0  0  0  0  0  0  0
  -30.3630  -20.7110  -10.1010 C   0  0  0  0  0  0  0  0  0  0  0  0
  -30.2682  -17.6131   -7.7884 C   0  0  0  0  0  0  0  0  0  0  0  0
  -31.8870  -22.2541  -11.5313 C   0  0  0  0  0  0  0  0  0  0  0  0
  -31.0748  -17.2494   -6.6123 C   0  0  0  0  0  0  0  0  0  0  0  0
  -32.7363  -21.5240  -12.0456 N   0  0  0  0  0  0  0  0  0  0  0  0
  -32.2123  -16.5880   -6.7015 C   0  0  0  0  0  0  0  0  0  0  0  0
  -30.4388  -16.8913   -8.9113 C   0  0  0  0  0  0  0  0  0  0  0  0
  -30.8655  -17.8672   -5.3205 C   0  0  0  0  0  0  0  0  0  0  0  0
  -33.2233  -16.3508   -5.7356 C   0  0  0  0  0  0  0  0  0  0  0  0
  -34.3840  -15.6550   -5.9943 O   0  0  0  0  0  0  0  0  0  0  0  0
  -32.9796  -17.0230   -4.5211 C   0  0  0  0  0  0  0  0  0  0  0  0
  -33.9989  -16.9367   -3.4773 O   0  0  0  0  0  0  0  0  0  0  0  0
  -29.6003  -16.8637   -9.9211 C   0  0  0  0  0  0  0  0  0  0  0  0
  -31.8695  -17.8112   -4.3136 C   0  0  0  0  0  0  0  0  0  0  0  0
  -31.6136  -18.3980   -3.0163 O   0  0  0  0  0  0  0  0  0  0  0  0
  -29.8612  -16.0738  -11.0469 C   0  0  0  0  0  0  0  0  0  0  0  0
  -29.0779  -16.1390  -12.1709 C   0  0  0  0  0  0  0  0  0  0  0  0
  -34.5531  -15.0209   -7.0963 C   0  0  0  0  0  0  0  0  0  0  0  0
  -30.8267  -15.0102  -10.7882 C   0  0  0  0  0  0  0  0  0  0  0  0
  -32.9015  -21.0911  -13.2358 C   0  0  0  0  0  0  0  0  0  0  0  0
  -33.6609  -17.1749   -2.2639 C   0  0  0  0  0  0  0  0  0  0  0  0
  -33.8367  -20.9602  -11.2856 C   0  0  0  0  0  0  0  0  0  0  0  0
  -32.8183  -18.5172   -2.1451 C   0  0  0  0  0  0  0  0  0  0  0  0
  -31.0821  -14.0375  -11.8222 C   0  0  0  0  0  0  0  0  0  0  0  0
  -31.7434  -15.1676   -9.7460 C   0  0  0  0  0  0  0  0  0  0  0  0
  -32.4452  -15.7188   -8.0005 C   0  0  0  0  0  0  0  0  0  0  0  0
  -31.8003  -12.9568  -11.5725 O   0  0  0  0  0  0  0  0  0  0  0  0
  -30.7155  -14.1632  -13.0929 O   0  0  0  0  0  0  0  0  0  0  0  0
  -31.5383  -15.9379   -8.8553 C   0  0  0  0  0  0  0  0  0  0  0  0
  -33.5307  -14.9509   -8.1865 C   0  0  0  0  0  0  0  0  0  0  0  0
  -31.7722  -23.4292  -12.5032 O   0  0  0  0  0  0  0  0  0  0  0  0
  -33.0140  -19.8724   -2.5893 C   0  0  0  0  0  0  0  0  0  0  0  0
  -31.9762  -21.4291  -14.2999 O   0  0  0  0  0  0  0  0  0  0  0  0
  -34.7294  -20.0606  -11.7906 C   0  0  0  0  0  0  0  0  0  0  0  0
  -32.9447  -14.4262   -9.5379 N   0  0  0  0  0  0  0  0  0  0  0  0
  -32.6523  -20.4702   -3.6751 O   0  0  0  0  0  0  0  0  0  0  0  0
  -35.5586  -14.2885   -7.3958 O   0  0  0  0  0  0  0  0  0  0  0  0
  -34.8677  -17.3990   -1.4165 C   0  0  0  0  0  0  0  0  0  0  0  0
  -34.4400  -19.6723  -13.2038 C   0  0  0  0  0  0  0  0  0  0  0  0
  -33.7843  -20.2351  -13.9903 C   0  0  0  0  0  0  0  0  0  0  0  0
  2  7  1  0
  2 11  1  0
  2 14  2  0
  3  7  1  0
  3  9  1  0
  3 12  2  0
  9 11  1  0
 11 13  2  3
  1  7  2  0
  1  8  1  0
  4  9  2  0
  4 10  1  0
  6 14  1  0
  6  8  2  0
  5 12  1  0
  5 10  2  0
 13 15  1  0
  6 16  1  0
 15 17  1  0
 16 18  1  0
 17 19  2  0
 15 20  2  0
 17 21  1  0
 19 22  1  0
 22 23  1  0
 22 24  2  0
 24 25  1  0
 20 26  1  0
 21 27  2  0
 24 27  1  0
 27 28  1  0
 26 29  2  0
 29 30  1  0
 23 31  1  0
 29 32  1  0
 18 33  1  0
 25 34  1  0
 18 35  1  0
 28 36  1  0
 34 36  1  0
 32 37  1  0
 32 38  2  0
 19 39  1  0
 37 40  2  0
 37 41  1  0
 20 42  1  0
 38 42  1  0
 39 42  2  0
 31 43  1  0
 39 43  1  0
 16 44  1  0
 36 45  1  0
 33 46  2  0
 35 47  2  0
 38 48  1  0
 43 48  2  0
 45 49  1  0
 31 50  2  0
 34 51  1  0
 47 52  1  0
 33 53  1  0
 52 53  2  0
M  END
$$$$

     RDKit          3D

 54 65  0  0  0  0  0  0  0  0999 V2000
  -28.1100  -21.1250  -11.7830 C   0  0  0  0  0  0  0  0  0  0  0  0
  -29.1380  -20.1340   -9.8150 C   0  0  0  0  0  0  0  0  0  0  0  0
  -26.8640  -19.6120  -10.1060 C   0  0  0  0  0  0  0  0  0  0  0  0
  -26.3470  -18.1740   -8.1970 C   0  0  0  0  0  0  0  0  0  0  0  0
  -24.6510  -18.7420   -9.8540 C   0  0  0  0  0  0  0  0  0  0  0  0
  -30.4600  -21.5050  -11.2460 C   0  0  0  0  0  0  0  0  0  0  0  0
  -28.0100  -20.3360  -10.6490 C   0  0  0  0  0  0  0  0  0  0  0  0
  -29.3460  -21.7100  -12.0780 C   0  0  0  0  0  0  0  0  0  0  0  0
  -27.2470  -18.9400   -8.9190 C   0  0  0  0  0  0  0  0  0  0  0  0
  -25.0380  -18.0800   -8.6770 C   0  0  0  0  0  0  0  0  0  0  0  0
  -28.6770  -19.2570   -8.7170 C   0  0  0  0  0  0  0  0  0  0  0  0
  -25.5650  -19.5150  -10.5780 C   0  0  0  0  0  0  0  0  0  0  0  0
  -29.5470  -18.7540   -7.5500 C   0  0  0  0  0  0  0  0  0  0  0  0
  -30.3630  -20.7110  -10.1010 C   0  0  0  0  0  0  0  0  0  0  0  0
  -30.2682  -17.6131   -7.7884 C   0  0  0  0  0  0  0  0  0  0  0  0
  -31.8870  -22.2541  -11.5313 C   0  0  0  0  0  0  0  0  0  0  0  0
  -31.0748  -17.2494   -6.6123 C   0  0  0  0  0  0  0  0  0  0  0  0
  -32.7363  -21.5240  -12.0456 N   0  0  0  0  0  0  0  0  0  0  0  0
  -32.2123  -16.5880   -6.7015 C   0  0  0  0  0  0  0  0  0  0  0  0
  -30.4388  -16.8913   -8.9113 C   0  0  0  0  0  0  0  0  0  0  0  0
  -30.8655  -17.8672   -5.3205 C   0  0  0  0  0  0  0  0  0  0  0  0
  -33.2233  -16.3508   -5.7356 C   0  0  0  0  0  0  0  0  0  0  0  0
  -34.3840  -15.6550   -5.9943 O   0  0  0  0  0  0  0  0  0  0  0  0
  -32.9796  -17.0230   -4.5211 C   0  0  0  0  0  0  0  0  0  0  0  0
  -33.9989  -16.9367   -3.4773 O   0  0  0  0  0  0  0  0  0  0  0  0
  -29.6003  -16.8637   -9.9211 C   0  0  0  0  0  0  0  0  0  0  0  0
  -31.8695  -17.8112   -4.3136 C   0  0  0  0  0  0  0  0  0  0  0  0
  -31.6136  -18.3980   -3.0163 O   0  0  0  0  0  0  0  0  0  0  0  0
  -29.8612  -16.0738  -11.0469 C   0  0  0  0  0  0  0  0  0  0  0  0
  -29.0779  -16.1390  -12.1709 C   0  0  0  0  0  0  0  0  0  0  0  0
  -34.5531  -15.0209   -7.0963 C   0  0  0  0  0  0  0  0  0  0  0  0
  -30.8267  -15.0102  -10.7882 C   0  0  0  0  0  0  0  0  0  0  0  0
  -32.9015  -21.0911  -13.2358 C   0  0  0  0  0  0  0  0  0  0  0  0
  -33.6609  -17.1749   -2.2639 C   0  0  0  0  0  0  0  0  0  0  0  0
  -33.8367  -20.9602  -11.2856 C   0  0  0  0  0  0  0  0  0  0  0  0
  -32.8183  -18.5172   -2.1451 C   0  0  0  0  0  0  0  0  0  0  0  0
  -31.0821  -14.0375  -11.8222 C   0  0  0  0  0  0  0  0  0  0  0  0
  -31.7434  -15.1676   -9.7460 C   0  0  0  0  0  0  0  0  0  0  0  0
  -31.5002  -15.9804   -8.7917 N   0  0  0  0  0  0  0  0  0  0  0  0
  -32.3562  -15.7731   -7.7744 C   0  0  0  0  0  0  0  0  0  0  0  0
  -31.9342  -13.0115  -11.6427 O   0  0  0  0  0  0  0  0  0  0  0  0
  -33.0150  -19.8751   -2.5613 C   0  0  0  0  0  0  0  0  0  0  0  0
  -32.6414  -20.5825   -3.3696 O   0  0  0  0  0  0  0  0  0  0  0  0
  -33.5656  -15.2139   -8.3163 C   0  0  0  0  0  0  0  0  0  0  0  0
  -35.6582  -14.3620   -7.2120 O   0  0  0  0  0  0  0  0  0  0  0  0
  -33.0362  -14.3244   -9.6223 C   0  0  0  0  0  0  0  0  0  0  0  0
  -33.6637  -16.4519   -1.2364 C   0  0  0  0  0  0  0  0  0  0  0  0
  -32.4923  -18.3782   -0.7294 C   0  0  0  0  0  0  0  0  0  0  0  0
  -30.3847  -14.1809  -13.0497 C   0  0  0  0  0  0  0  0  0  0  0  0
  -29.3289  -15.0997  -13.2089 C   0  0  0  0  0  0  0  0  0  0  0  0
  -34.5526  -19.8987  -11.8786 C   0  0  0  0  0  0  0  0  0  0  0  0
  -28.3481  -15.0003  -14.0513 O   0  0  0  0  0  0  0  0  0  0  0  0
  -32.9261  -17.3635   -0.1342 C   0  0  0  0  0  0  0  0  0  0  0  0
  -34.0471  -20.0398  -13.3244 C   0  0  0  0  0  0  0  0  0  0  0  0
  2  7  1  0
  2 11  1  0
  2 14  2  0
  3  7  1  0
  3  9  1  0
  3 12  2  0
  9 11  1  0
 11 13  2  3
  1  7  2  0
  1  8  1  0
  4  9  2  0
  4 10  1  0
  6 14  1  0
  6  8  2  0
  5 12  1  0
  5 10  2  0
 13 15  1  0
  6 16  1  0
 15 17  1  0
 16 18  1  0
 17 19  2  0
 15 20  2  0
 17 21  1  0
 19 22  1  0
 22 23  1  0
 22 24  2  0
 24 25  1  0
 20 26  1  0
 21 27  2  0
 24 27  1  0
 27 28  1  0
 26 29  2  0
 29 30  1  0
 23 31  1  0
 29 32  1  0
 18 33  1  0
 25 34  1  0
 18 35  1  0
 28 36  1  0
 34 36  1  0
 32 37  1  0
 32 38  2  0
 20 39  1  0
 38 39  1  0
 19 40  1  0
 39 40  1  0
 37 41  2  0
 36 42  1  0
 42 43  2  0
 31 44  1  0
 40 44  2  0
 31 45  2  0
 38 46  1  0
 44 46  1  0
 34 47  2  0
 36 48  1  0
 37 49  1  0
 30 50  1  0
 49 50  1  0
 35 51  1  0
 50 52  2  0
 47 53  1  0
 48 53  2  0
 33 54  1  0
 51 54  1  0
M  END
$$$$

     RDKit          3D

 55 64  0  0  0  0  0  0  0  0999 V2000
  -28.1100  -21.1250  -11.7830 C   0  0  0  0  0  0  0  0  0  0  0  0
  -29.1380  -20.1340   -9.8150 C   0  0  0  0  0  0  0  0  0  0  0  0
  -26.8640  -19.6120  -10.1060 C   0  0  0  0  0  0  0  0  0  0  0  0
  -26.3470  -18.1740   -8.1970 C   0  0  0  0  0  0  0  0  0  0  0  0
  -24.6510  -18.7420   -9.8540 C   0  0  0  0  0  0  0  0  0  0  0  0
  -30.4600  -21.5050  -11.2460 C   0  0  0  0  0  0  0  0  0  0  0  0
  -28.0100  -20.3360  -10.6490 C   0  0  0  0  0  0  0  0  0  0  0  0
  -29.3460  -21.7100  -12.0780 C   0  0  0  0  0  0  0  0  0  0  0  0
  -27.2470  -18.9400   -8.9190 C   0  0  0  0  0  0  0  0  0  0  0  0
  -25.0380  -18.0800   -8.6770 C   0  0  0  0  0  0  0  0  0  0  0  0
  -28.6770  -19.2570   -8.7170 C   0  0  0  0  0  0  0  0  0  0  0  0
  -25.5650  -19.5150  -10.5780 C   0  0  0  0  0  0  0  0  0  0  0  0
  -29.5470  -18.7540   -7.5500 C   0  0  0  0  0  0  0  0  0  0  0  0
  -30.3630  -20.7110  -10.1010 C   0  0  0  0  0  0  0  0  0  0  0  0
  -30.2682  -17.6131   -7.7884 C   0  0  0  0  0  0  0  0  0  0  0  0
  -31.8870  -22.2541  -11.5313 C   0  0  0  0  0  0  0  0  0  0  0  0
  -31.0748  -17.2494   -6.6123 C   0  0  0  0  0  0  0  0  0  0  0  0
  -32.7363  -21.5240  -12.0456 N   0  0  0  0  0  0  0  0  0  0  0  0
  -32.2123  -16.5880   -6.7015 C   0  0  0  0  0  0  0  0  0  0  0  0
  -30.4388  -16.8913   -8.9113 C   0  0  0  0  0  0  0  0  0  0  0  0
  -30.8655  -17.8672   -5.3205 C   0  0  0  0  0  0  0  0  0  0  0  0
  -33.2233  -16.3508   -5.7356 C   0  0  0  0  0  0  0  0  0  0  0  0
  -34.3840  -15.6550   -5.9943 O   0  0  0  0  0  0  0  0  0  0  0  0
  -32.9796  -17.0230   -4.5211 C   0  0  0  0  0  0  0  0  0  0  0  0
  -33.9989  -16.9367   -3.4773 O   0  0  0  0  0  0  0  0  0  0  0  0
  -29.6003  -16.8637   -9.9211 C   0  0  0  0  0  0  0  0  0  0  0  0
  -31.8695  -17.8112   -4.3136 C   0  0  0  0  0  0  0  0  0  0  0  0
  -31.6136  -18.3980   -3.0163 O   0  0  0  0  0  0  0  0  0  0  0  0
  -29.8612  -16.0738  -11.0469 C   0  0  0  0  0  0  0  0  0  0  0  0
  -29.0779  -16.1390  -12.1709 C   0  0  0  0  0  0  0  0  0  0  0  0
  -34.5531  -15.0209   -7.0963 C   0  0  0  0  0  0  0  0  0  0  0  0
  -30.8267  -15.0102  -10.7882 C   0  0  0  0  0  0  0  0  0  0  0  0
  -32.9015  -21.0911  -13.2358 C   0  0  0  0  0  0  0  0  0  0  0  0
  -33.6609  -17.1749   -2.2639 C   0  0  0  0  0  0  0  0  0  0  0  0
  -33.8367  -20.9602  -11.2856 C   0  0  0  0  0  0  0  0  0  0  0  0
  -32.8183  -18.5172   -2.1451 C   0  0  0  0  0  0  0  0  0  0  0  0
  -31.4298  -15.8520   -8.9285 O   0  0  0  0  0  0  0  0  0  0  0  0
  -31.0427  -14.0339  -11.9064 C   0  0  0  0  0  0  0  0  0  0  0  0
  -32.1570  -21.6197  -14.3407 O   0  0  0  0  0  0  0  0  0  0  0  0
  -29.2693  -15.2152  -13.2864 C   0  0  0  0  0  0  0  0  0  0  0  0
  -28.0998  -17.1342  -12.3540 C   0  0  0  0  0  0  0  0  0  0  0  0
  -31.9878  -12.9948  -11.7679 C   0  0  0  0  0  0  0  0  0  0  0  0
  -28.5289  -15.2981  -14.4298 C   0  0  0  0  0  0  0  0  0  0  0  0
  -27.5251  -16.3582  -14.4132 C   0  0  0  0  0  0  0  0  0  0  0  0
  -33.9098  -20.2029  -13.8471 C   0  0  0  0  0  0  0  0  0  0  0  0
  -33.0094  -19.8793   -2.5794 C   0  0  0  0  0  0  0  0  0  0  0  0
  -31.6669  -14.9585   -9.7189 C   0  0  0  0  0  0  0  0  0  0  0  0
  -27.2911  -17.2246  -13.4589 C   0  0  0  0  0  0  0  0  0  0  0  0
  -32.6607  -20.5911   -3.3713 O   0  0  0  0  0  0  0  0  0  0  0  0
  -34.8339  -19.6568  -13.0415 C   0  0  0  0  0  0  0  0  0  0  0  0
  -32.5364  -13.8567   -9.6761 C   0  0  0  0  0  0  0  0  0  0  0  0
  -32.7650  -12.9308  -10.6035 C   0  0  0  0  0  0  0  0  0  0  0  0
  -34.8374  -20.0526  -11.7034 C   0  0  0  0  0  0  0  0  0  0  0  0
  -34.8500  -17.3635   -1.3554 C   0  0  0  0  0  0  0  0  0  0  0  0
  -30.2678  -14.1182  -13.1499 O   0  0  0  0  0  0  0  0  0  0  0  0
  2  7  1  0
  2 11  1  0
  2 14  2  0
  3  7  1  0
  3  9  1  0
  3 12  2  0
  9 11  1  0
 11 13  2  3
  1  7  2  0
  1  8  1  0
  4  9  2  0
  4 10  1  0
  6 14  1  0
  6  8  2  0
  5 12  1  0
  5 10  2  0
 13 15  1  0
  6 16  1  0
 15 17  1  0
 16 18  1  0
 17 19  2  0
 15 20  2  3
 17 21  1  0
 19 22  1  0
 22 23  1  0
 22 24  2  0
 24 25  1  0
 20 26  1  0
 21 27  2  0
 24 27  1  0
 27 28  1  0
 26 29  2  0
 29 30  1  0
 23 31  1  0
 29 32  1  0
 18 33  1  0
 25 34  1  0
 18 35  1  0
 28 36  1  0
 34 36  1  0
 20 37  1  0
 32 38  2  0
 33 39  2  0
 30 40  1  0
 30 41  2  0
 38 42  1  0
 40 43  2  0
 43 44  1  0
 33 45  1  0
 36 46  1  0
 32 47  1  0
 37 47  1  0
 41 48  1  0
 44 48  2  0
 46 49  2  0
 45 50  2  0
 47 51  2  0
 42 52  2  0
 51 52  1  0
 35 53  2  0
 50 53  1  0
 34 54  1  0
 38 55  1  0
 40 55  1  0
M  END
$$$$

     RDKit          3D

 56 65  0  0  0  0  0  0  0  0999 V2000
  -28.1100  -21.1250  -11.7830 C   0  0  0  0  0  0  0  0  0  0  0  0
  -29.1380  -20.1340   -9.8150 C   0  0  0  0  0  0  0  0  0  0  0  0
  -26.8640  -19.6120  -10.1060 C   0  0  0  0  0  0  0  0  0  0  0  0
  -26.3470  -18.1740   -8.1970 C   0  0  0  0  0  0  0  0  0  0  0  0
  -24.6510  -18.7420   -9.8540 C   0  0  0  0  0  0  0  0  0  0  0  0
  -30.4600  -21.5050  -11.2460 C   0  0  0  0  0  0  0  0  0  0  0  0
  -28.0100  -20.3360  -10.6490 C   0  0  0  0  0  0  0  0  0  0  0  0
  -29.3460  -21.7100  -12.0780 C   0  0  0  0  0  0  0  0  0  0  0  0
  -27.2470  -18.9400   -8.9190 C   0  0  0  0  0  0  0  0  0  0  0  0
  -25.0380  -18.0800   -8.6770 C   0  0  0  0  0  0  0  0  0  0  0  0
  -28.6770  -19.2570   -8.7170 C   0  0  0  0  0  0  0  0  0  0  0  0
  -25.5650  -19.5150  -10.5780 C   0  0  0  0  0  0  0  0  0  0  0  0
  -29.5470  -18.7540   -7.5500 C   0  0  0  0  0  0  0  0  0  0  0  0
  -30.3630  -20.7110  -10.1010 C   0  0  0  0  0  0  0  0  0  0  0  0
  -30.2682  -17.6131   -7.7884 C   0  0  0  0  0  0  0  0  0  0  0  0
  -31.8870  -22.2541  -11.5313 C   0  0  0  0  0  0  0  0  0  0  0  0
  -31.0748  -17.2494   -6.6123 C   0  0  0  0  0  0  0  0  0  0  0  0
  -32.7363  -21.5240  -12.0456 N   0  0  0  0  0  0  0  0  0  0  0  0
  -32.2123  -16.5880   -6.7015 C   0  0  0  0  0  0  0  0  0  0  0  0
  -30.4388  -16.8913   -8.9113 C   0  0  0  0  0  0  0  0  0  0  0  0
  -30.8655  -17.8672   -5.3205 C   0  0  0  0  0  0  0  0  0  0  0  0
  -33.2233  -16.3508   -5.7356 C   0  0  0  0  0  0  0  0  0  0  0  0
  -34.3840  -15.6550   -5.9943 O   0  0  0  0  0  0  0  0  0  0  0  0
  -32.9796  -17.0230   -4.5211 C   0  0  0  0  0  0  0  0  0  0  0  0
  -33.9989  -16.9367   -3.4773 O   0  0  0  0  0  0  0  0  0  0  0  0
  -29.6003  -16.8637   -9.9211 C   0  0  0  0  0  0  0  0  0  0  0  0
  -31.8695  -17.8112   -4.3136 C   0  0  0  0  0  0  0  0  0  0  0  0
  -31.6136  -18.3980   -3.0163 O   0  0  0  0  0  0  0  0  0  0  0  0
  -29.8612  -16.0738  -11.0469 C   0  0  0  0  0  0  0  0  0  0  0  0
  -29.0779  -16.1390  -12.1709 C   0  0  0  0  0  0  0  0  0  0  0  0
  -34.5531  -15.0209   -7.0963 C   0  0  0  0  0  0  0  0  0  0  0  0
  -30.8267  -15.0102  -10.7882 C   0  0  0  0  0  0  0  0  0  0  0  0
  -32.9015  -21.0911  -13.2358 C   0  0  0  0  0  0  0  0  0  0  0  0
  -33.6609  -17.1749   -2.2639 C   0  0  0  0  0  0  0  0  0  0  0  0
  -33.8367  -20.9602  -11.2856 C   0  0  0  0  0  0  0  0  0  0  0  0
  -32.8183  -18.5172   -2.1451 C   0  0  0  0  0  0  0  0  0  0  0  0
  -31.4298  -15.8520   -8.9285 O   0  0  0  0  0  0  0  0  0  0  0  0
  -31.0427  -14.0339  -11.9064 C   0  0  0  0  0  0  0  0  0  0  0  0
  -32.1570  -21.6197  -14.3407 O   0  0  0  0  0  0  0  0  0  0  0  0
  -29.2693  -15.2152  -13.2864 C   0  0  0  0  0  0  0  0  0  0  0  0
  -28.0998  -17.1342  -12.3540 C   0  0  0  0  0  0  0  0  0  0  0  0
  -31.9878  -12.9948  -11.7679 C   0  0  0  0  0  0  0  0  0  0  0  0
  -28.5289  -15.2981  -14.4298 C   0  0  0  0  0  0  0  0  0  0  0  0
  -27.5251  -16.3582  -14.4132 C   0  0  0  0  0  0  0  0  0  0  0  0
  -33.9098  -20.2029  -13.8471 C   0  0  0  0  0  0  0  0  0  0  0  0
  -33.0094  -19.8793   -2.5794 C   0  0  0  0  0  0  0  0  0  0  0  0
  -27.3145  -17.2592  -13.4694 C   0  0  0  0  0  0  0  0  0  0  0  0
  -31.6189  -15.0570   -9.8387 C   0  0  0  0  0  0  0  0  0  0  0  0
  -32.6742  -20.4508   -3.6932 O   0  0  0  0  0  0  0  0  0  0  0  0
  -33.8894  -19.7534  -15.2337 C   0  0  0  0  0  0  0  0  0  0  0  0
  -32.6023  -12.9366  -10.8425 C   0  0  0  0  0  0  0  0  0  0  0  0
  -30.2730  -14.2241  -13.1425 O   0  0  0  0  0  0  0  0  0  0  0  0
  -34.8867  -17.4149   -1.4407 C   0  0  0  0  0  0  0  0  0  0  0  0
  -34.7527  -19.9851  -11.6799 C   0  0  0  0  0  0  0  0  0  0  0  0
  -32.5220  -13.8930   -9.6177 C   0  0  0  0  0  0  0  0  0  0  0  0
  -34.7398  -19.5374  -12.9862 C   0  0  0  0  0  0  0  0  0  0  0  0
  2  7  1  0
  2 11  1  0
  2 14  2  0
  3  7  1  0
  3  9  1  0
  3 12  2  0
  9 11  1  0
 11 13  2  3
  1  7  2  0
  1  8  1  0
  4  9  2  0
  4 10  1  0
  6 14  1  0
  6  8  2  0
  5 12  1  0
  5 10  2  0
 13 15  1  0
  6 16  1  0
 15 17  1  0
 16 18  1  0
 17 19  2  0
 15 20  2  3
 17 21  1  0
 19 22  1  0
 22 23  1  0
 22 24  2  0
 24 25  1  0
 20 26  1  0
 21 27  2  0
 24 27  1  0
 27 28  1  0
 26 29  2  0
 29 30  1  0
 23 31  1  0
 29 32  1  0
 18 33  1  0
 25 34  1  0
 18 35  1  0
 28 36  1  0
 34 36  1  0
 20 37  1  0
 32 38  2  0
 33 39  2  0
 30 40  1  0
 30 41  2  0
 38 42  1  0
 40 43  2  0
 43 44  1  0
 33 45  1  0
 36 46  1  0
 41 47  1  0
 44 47  2  0
 32 48  1  0
 37 48  1  0
 46 49  1  0
 45 50  1  0
 42 51  2  0
 38 52  1  0
 40 52  1  0
 34 53  1  0
 35 54  2  0
 48 55  2  0
 51 55  1  0
 45 56  2  0
 54 56  1  0
M  END
$$$$

     RDKit          3D

 57 67  0  0  0  0  0  0  0  0999 V2000
  -28.1100  -21.1250  -11.7830 C   0  0  0  0  0  0  0  0  0  0  0  0
  -29.1380  -20.1340   -9.8150 C   0  0  0  0  0  0  0  0  0  0  0  0
  -26.8640  -19.6120  -10.1060 C   0  0  0  0  0  0  0  0  0  0  0  0
  -26.3470  -18.1740   -8.1970 C   0  0  0  0  0  0  0  0  0  0  0  0
  -24.6510  -18.7420   -9.8540 C   0  0  0  0  0  0  0  0  0  0  0  0
  -30.4600  -21.5050  -11.2460 C   0  0  0  0  0  0  0  0  0  0  0  0
  -28.0100  -20.3360  -10.6490 C   0  0  0  0  0  0  0  0  0  0  0  0
  -29.3460  -21.7100  -12.0780 C   0  0  0  0  0  0  0  0  0  0  0  0
  -27.2470  -18.9400   -8.9190 C   0  0  0  0  0  0  0  0  0  0  0  0
  -25.0380  -18.0800   -8.6770 C   0  0  0  0  0  0  0  0  0  0  0  0
  -28.6770  -19.2570   -8.7170 C   0  0  0  0  0  0  0  0  0  0  0  0
  -25.5650  -19.5150  -10.5780 C   0  0  0  0  0  0  0  0  0  0  0  0
  -29.5470  -18.7540   -7.5500 C   0  0  0  0  0  0  0  0  0  0  0  0
  -30.3630  -20.7110  -10.1010 C   0  0  0  0  0  0  0  0  0  0  0  0
  -30.2682  -17.6131   -7.7884 C   0  0  0  0  0  0  0  0  0  0  0  0
  -31.8870  -22.2541  -11.5313 C   0  0  0  0  0  0  0  0  0  0  0  0
  -31.0748  -17.2494   -6.6123 C   0  0  0  0  0  0  0  0  0  0  0  0
  -32.7363  -21.5240  -12.0456 N   0  0  0  0  0  0  0  0  0  0  0  0
  -32.2123  -16.5880   -6.7015 C   0  0  0  0  0  0  0  0  0  0  0  0
  -30.4388  -16.8913   -8.9113 C   0  0  0  0  0  0  0  0  0  0  0  0
  -30.8655  -17.8672   -5.3205 C   0  0  0  0  0  0  0  0  0  0  0  0
  -33.2233  -16.3508   -5.7356 C   0  0  0  0  0  0  0  0  0  0  0  0
  -34.3840  -15.6550   -5.9943 O   0  0  0  0  0  0  0  0  0  0  0  0
  -32.9796  -17.0230   -4.5211 C   0  0  0  0  0  0  0  0  0  0  0  0
  -33.9989  -16.9367   -3.4773 O   0  0  0  0  0  0  0  0  0  0  0  0
  -29.6003  -16.8637   -9.9211 C   0  0  0  0  0  0  0  0  0  0  0  0
  -31.8695  -17.8112   -4.3136 C   0  0  0  0  0  0  0  0  0  0  0  0
  -31.6136  -18.3980   -3.0163 O   0  0  0  0  0  0  0  0  0  0  0  0
  -29.8612  -16.0738  -11.0469 C   0  0  0  0  0  0  0  0  0  0  0  0
  -29.0779  -16.1390  -12.1709 C   0  0  0  0  0  0  0  0  0  0  0  0
  -34.5531  -15.0209   -7.0963 C   0  0  0  0  0  0  0  0  0  0  0  0
  -30.8267  -15.0102  -10.7882 C   0  0  0  0  0  0  0  0  0  0  0  0
  -32.9015  -21.0911  -13.2358 C   0  0  0  0  0  0  0  0  0  0  0  0
  -33.6609  -17.1749   -2.2639 C   0  0  0  0  0  0  0  0  0  0  0  0
  -33.8367  -20.9602  -11.2856 C   0  0  0  0  0  0  0  0  0  0  0  0
  -32.8183  -18.5172   -2.1451 C   0  0  0  0  0  0  0  0  0  0  0  0
  -31.4298  -15.8520   -8.9285 O   0  0  0  0  0  0  0  0  0  0  0  0
  -31.0427  -14.0339  -11.9064 C   0  0  0  0  0  0  0  0  0  0  0  0
  -32.1570  -21.6197  -14.3407 O   0  0  0  0  0  0  0  0  0  0  0  0
  -29.2693  -15.2152  -13.2864 C   0  0  0  0  0  0  0  0  0  0  0  0
  -28.0998  -17.1342  -12.3540 C   0  0  0  0  0  0  0  0  0  0  0  0
  -31.9878  -12.9948  -11.7679 C   0  0  0  0  0  0  0  0  0  0  0  0
  -28.5289  -15.2981  -14.4298 C   0  0  0  0  0  0  0  0  0  0  0  0
  -31.6077  -15.0347   -9.8235 C   0  0  0  0  0  0  0  0  0  0  0  0
  -34.1932  -16.5586   -1.1636 C   0  0  0  0  0  0  0  0  0  0  0  0
  -32.8264  -13.0004  -10.6358 C   0  0  0  0  0  0  0  0  0  0  0  0
  -27.3153  -17.2335  -13.5019 C   0  0  0  0  0  0  0  0  0  0  0  0
  -34.9872  -15.6407   -1.5167 O   0  0  0  0  0  0  0  0  0  0  0  0
  -28.7102  -14.3980  -15.5124 O   0  0  0  0  0  0  0  0  0  0  0  0
  -27.4992  -16.2858  -14.6012 C   0  0  0  0  0  0  0  0  0  0  0  0
  -30.2689  -14.0626  -13.1288 C   0  0  0  0  0  0  0  0  0  0  0  0
  -32.3227  -18.7218   -0.8980 C   0  0  0  0  0  0  0  0  0  0  0  0
  -32.6427  -14.0066   -9.6216 C   0  0  0  0  0  0  0  0  0  0  0  0
  -33.8519  -16.8339    0.0561 O   0  0  0  0  0  0  0  0  0  0  0  0
  -34.6196  -19.9269  -11.8392 C   0  0  0  0  0  0  0  0  0  0  0  0
  -33.4279  -18.3018    0.2790 C   0  0  0  0  0  0  0  0  0  0  0  0
  -33.7588  -19.9644  -13.5859 C   0  0  0  0  0  0  0  0  0  0  0  0
  2  7  1  0
  2 11  1  0
  2 14  2  0
  3  7  1  0
  3  9  1  0
  3 12  2  0
  9 11  1  0
 11 13  2  3
  1  7  2  0
  1  8  1  0
  4  9  2  0
  4 10  1  0
  6 14  1  0
  6  8  2  0
  5 12  1  0
  5 10  2  0
 13 15  1  0
  6 16  1  0
 15 17  1  0
 16 18  1  0
 17 19  2  0
 15 20  2  3
 17 21  1  0
 19 22  1  0
 22 23  1  0
 22 24  2  0
 24 25  1  0
 20 26  1  0
 21 27  2  0
 24 27  1  0
 27 28  1  0
 26 29  2  0
 29 30  1  0
 23 31  1  0
 29 32  1  0
 18 33  1  0
 25 34  1  0
 18 35  1  0
 28 36  1  0
 34 36  1  0
 20 37  1  0
 32 38  2  0
 33 39  2  0
 30 40  1  0
 30 41  2  0
 38 42  1  0
 40 43  2  0
 32 44  1  0
 37 44  1  0
 34 45  1  0
 42 46  2  0
 41 47  1  0
 45 48  2  0
 43 49  1  0
 43 50  1  0
 47 50  2  0
 38 51  1  0
 40 51  1  0
 36 52  1  0
 44 53  2  0
 46 53  1  0
 45 54  1  0
 35 55  1  0
 52 56  1  0
 54 56  1  0
 33 57  1  0
 55 57  2  0
M  END
$$$$

     RDKit          3D

 57 66  0  0  0  0  0  0  0  0999 V2000
  -28.1100  -21.1250  -11.7830 C   0  0  0  0  0  0  0  0  0  0  0  0
  -29.1380  -20.1340   -9.8150 C   0  0  0  0  0  0  0  0  0  0  0  0
  -26.8640  -19.6120  -10.1060 C   0  0  0  0  0  0  0  0  0  0  0  0
  -26.3470  -18.1740   -8.1970 C   0  0  0  0  0  0  0  0  0  0  0  0
  -24.6510  -18.7420   -9.8540 C   0  0  0  0  0  0  0  0  0  0  0  0
  -30.4600  -21.5050  -11.2460 C   0  0  0  0  0  0  0  0  0  0  0  0
  -28.0100  -20.3360  -10.6490 C   0  0  0  0  0  0  0  0  0  0  0  0
  -29.3460  -21.7100  -12.0780 C   0  0  0  0  0  0  0  0  0  0  0  0
  -27.2470  -18.9400   -8.9190 C   0  0  0  0  0  0  0  0  0  0  0  0
  -25.0380  -18.0800   -8.6770 C   0  0  0  0  0  0  0  0  0  0  0  0
  -28.6770  -19.2570   -8.7170 C   0  0  0  0  0  0  0  0  0  0  0  0
  -25.5650  -19.5150  -10.5780 C   0  0  0  0  0  0  0  0  0  0  0  0
  -29.5470  -18.7540   -7.5500 C   0  0  0  0  0  0  0  0  0  0  0  0
  -30.3630  -20.7110  -10.1010 C   0  0  0  0  0  0  0  0  0  0  0  0
  -30.2682  -17.6131   -7.7884 C   0  0  0  0  0  0  0  0  0  0  0  0
  -31.8870  -22.2541  -11.5313 C   0  0  0  0  0  0  0  0  0  0  0  0
  -31.0748  -17.2494   -6.6123 C   0  0  0  0  0  0  0  0  0  0  0  0
  -32.7363  -21.5240  -12.0456 N   0  0  0  0  0  0  0  0  0  0  0  0
  -32.2123  -16.5880   -6.7015 C   0  0  0  0  0  0  0  0  0  0  0  0
  -30.4388  -16.8913   -8.9113 C   0  0  0  0  0  0  0  0  0  0  0  0
  -30.8655  -17.8672   -5.3205 C   0  0  0  0  0  0  0  0  0  0  0  0
  -33.2233  -16.3508   -5.7356 C   0  0  0  0  0  0  0  0  0  0  0  0
  -34.3840  -15.6550   -5.9943 O   0  0  0  0  0  0  0  0  0  0  0  0
  -32.9796  -17.0230   -4.5211 C   0  0  0  0  0  0  0  0  0  0  0  0
  -33.9989  -16.9367   -3.4773 O   0  0  0  0  0  0  0  0  0  0  0  0
  -29.6003  -16.8637   -9.9211 C   0  0  0  0  0  0  0  0  0  0  0  0
  -31.8695  -17.8112   -4.3136 C   0  0  0  0  0  0  0  0  0  0  0  0
  -31.6136  -18.3980   -3.0163 O   0  0  0  0  0  0  0  0  0  0  0  0
  -29.8612  -16.0738  -11.0469 C   0  0  0  0  0  0  0  0  0  0  0  0
  -29.0779  -16.1390  -12.1709 C   0  0  0  0  0  0  0  0  0  0  0  0
  -34.5531  -15.0209   -7.0963 C   0  0  0  0  0  0  0  0  0  0  0  0
  -30.8267  -15.0102  -10.7882 C   0  0  0  0  0  0  0  0  0  0  0  0
  -32.9015  -21.0911  -13.2358 C   0  0  0  0  0  0  0  0  0  0  0  0
  -33.6609  -17.1749   -2.2639 C   0  0  0  0  0  0  0  0  0  0  0  0
  -33.8367  -20.9602  -11.2856 C   0  0  0  0  0  0  0  0  0  0  0  0
  -32.8183  -18.5172   -2.1451 C   0  0  0  0  0  0  0  0  0  0  0  0
  -31.4298  -15.8520   -8.9285 O   0  0  0  0  0  0  0  0  0  0  0  0
  -31.0427  -14.0339  -11.9064 C   0  0  0  0  0  0  0  0  0  0  0  0
  -32.1570  -21.6197  -14.3407 O   0  0  0  0  0  0  0  0  0  0  0  0
  -29.2693  -15.2152  -13.2864 C   0  0  0  0  0  0  0  0  0  0  0  0
  -28.0998  -17.1342  -12.3540 C   0  0  0  0  0  0  0  0  0  0  0  0
  -31.9878  -12.9948  -11.7679 C   0  0  0  0  0  0  0  0  0  0  0  0
  -28.5289  -15.2981  -14.4298 C   0  0  0  0  0  0  0  0  0  0  0  0
  -31.6077  -15.0347   -9.8235 C   0  0  0  0  0  0  0  0  0  0  0  0
  -34.1932  -16.5586   -1.1636 C   0  0  0  0  0  0  0  0  0  0  0  0
  -32.8264  -13.0004  -10.6358 C   0  0  0  0  0  0  0  0  0  0  0  0
  -27.3153  -17.2335  -13.5019 C   0  0  0  0  0  0  0  0  0  0  0  0
  -34.9872  -15.6407   -1.5167 O   0  0  0  0  0  0  0  0  0  0  0  0
  -28.7102  -14.3980  -15.5124 O   0  0  0  0  0  0  0  0  0  0  0  0
  -27.4992  -16.2858  -14.6012 C   0  0  0  0  0  0  0  0  0  0  0  0
  -33.2711  -19.9237   -2.5693 C   0  0  0  0  0  0  0  0  0  0  0  0
  -32.6886  -20.7176   -3.3363 O   0  0  0  0  0  0  0  0  0  0  0  0
  -33.5820  -16.5565   -0.0176 O   0  0  0  0  0  0  0  0  0  0  0  0
  -30.2468  -14.1154  -13.1993 C   0  0  0  0  0  0  0  0  0  0  0  0
  -32.6568  -14.0102   -9.6421 C   0  0  0  0  0  0  0  0  0  0  0  0
  -33.8471  -20.0942  -13.6342 C   0  0  0  0  0  0  0  0  0  0  0  0
  -34.4968  -19.8372  -12.4598 C   0  0  0  0  0  0  0  0  0  0  0  0
  2  7  1  0
  2 11  1  0
  2 14  2  0
  3  7  1  0
  3  9  1  0
  3 12  2  0
  9 11  1  0
 11 13  2  3
  1  7  2  0
  1  8  1  0
  4  9  2  0
  4 10  1  0
  6 14  1  0
  6  8  2  0
  5 12  1  0
  5 10  2  0
 13 15  1  0
  6 16  1  0
 15 17  1  0
 16 18  1  0
 17 19  2  0
 15 20  2  3
 17 21  1  0
 19 22  1  0
 22 23  1  0
 22 24  2  0
 24 25  1  0
 20 26  1  0
 21 27  2  0
 24 27  1  0
 27 28  1  0
 26 29  2  0
 29 30  1  0
 23 31  1  0
 29 32  1  0
 18 33  1  0
 25 34  1  0
 18 35  1  0
 28 36  1  0
 34 36  1  0
 20 37  1  0
 32 38  2  0
 33 39  2  0
 30 40  1  0
 30 41  2  0
 38 42  1  0
 40 43  2  0
 32 44  1  0
 37 44  1  0
 34 45  1  0
 42 46  2  0
 41 47  1  0
 45 48  2  0
 43 49  1  0
 43 50  1  0
 47 50  2  0
 36 51  1  0
 51 52  2  0
 45 53  1  0
 38 54  1  0
 40 54  1  0
 44 55  2  0
 46 55  1  0
 33 56  1  0
 35 57  1  0
 56 57  2  0
M  END
$$$$

     RDKit          3D

 57 66  0  0  0  0  0  0  0  0999 V2000
  -28.1100  -21.1250  -11.7830 C   0  0  0  0  0  0  0  0  0  0  0  0
  -29.1380  -20.1340   -9.8150 C   0  0  0  0  0  0  0  0  0  0  0  0
  -26.8640  -19.6120  -10.1060 C   0  0  0  0  0  0  0  0  0  0  0  0
  -26.3470  -18.1740   -8.1970 C   0  0  0  0  0  0  0  0  0  0  0  0
  -24.6510  -18.7420   -9.8540 C   0  0  0  0  0  0  0  0  0  0  0  0
  -30.4600  -21.5050  -11.2460 C   0  0  0  0  0  0  0  0  0  0  0  0
  -28.0100  -20.3360  -10.6490 C   0  0  0  0  0  0  0  0  0  0  0  0
  -29.3460  -21.7100  -12.0780 C   0  0  0  0  0  0  0  0  0  0  0  0
  -27.2470  -18.9400   -8.9190 C   0  0  0  0  0  0  0  0  0  0  0  0
  -25.0380  -18.0800   -8.6770 C   0  0  0  0  0  0  0  0  0  0  0  0
  -28.6770  -19.2570   -8.7170 C   0  0  0  0  0  0  0  0  0  0  0  0
  -25.5650  -19.5150  -10.5780 C   0  0  0  0  0  0  0  0  0  0  0  0
  -29.5470  -18.7540   -7.5500 C   0  0  0  0  0  0  0  0  0  0  0  0
  -30.3630  -20.7110  -10.1010 C   0  0  0  0  0  0  0  0  0  0  0  0
  -30.2682  -17.6131   -7.7884 C   0  0  0  0  0  0  0  0  0  0  0  0
  -31.8870  -22.2541  -11.5313 C   0  0  0  0  0  0  0  0  0  0  0  0
  -31.0748  -17.2494   -6.6123 C   0  0  0  0  0  0  0  0  0  0  0  0
  -32.7363  -21.5240  -12.0456 N   0  0  0  0  0  0  0  0  0  0  0  0
  -32.2123  -16.5880   -6.7015 C   0  0  0  0  0  0  0  0  0  0  0  0
  -30.4388  -16.8913   -8.9113 C   0  0  0  0  0  0  0  0  0  0  0  0
  -30.8655  -17.8672   -5.3205 C   0  0  0  0  0  0  0  0  0  0  0  0
  -33.2233  -16.3508   -5.7356 C   0  0  0  0  0  0  0  0  0  0  0  0
  -34.3840  -15.6550   -5.9943 O   0  0  0  0  0  0  0  0  0  0  0  0
  -32.9796  -17.0230   -4.5211 C   0  0  0  0  0  0  0  0  0  0  0  0
  -33.9989  -16.9367   -3.4773 O   0  0  0  0  0  0  0  0  0  0  0  0
  -29.6003  -16.8637   -9.9211 C   0  0  0  0  0  0  0  0  0  0  0  0
  -31.8695  -17.8112   -4.3136 C   0  0  0  0  0  0  0  0  0  0  0  0
  -31.6136  -18.3980   -3.0163 O   0  0  0  0  0  0  0  0  0  0  0  0
  -29.8612  -16.0738  -11.0469 C   0  0  0  0  0  0  0  0  0  0  0  0
  -29.0779  -16.1390  -12.1709 C   0  0  0  0  0  0  0  0  0  0  0  0
  -34.5531  -15.0209   -7.0963 C   0  0  0  0  0  0  0  0  0  0  0  0
  -30.8267  -15.0102  -10.7882 C   0  0  0  0  0  0  0  0  0  0  0  0
  -32.9015  -21.0911  -13.2358 C   0  0  0  0  0  0  0  0  0  0  0  0
  -33.6609  -17.1749   -2.2639 C   0  0  0  0  0  0  0  0  0  0  0  0
  -33.8367  -20.9602  -11.2856 C   0  0  0  0  0  0  0  0  0  0  0  0
  -32.8183  -18.5172   -2.1451 C   0  0  0  0  0  0  0  0  0  0  0  0
  -31.4298  -15.8520   -8.9285 O   0  0  0  0  0  0  0  0  0  0  0  0
  -31.0427  -14.0339  -11.9064 C   0  0  0  0  0  0  0  0  0  0  0  0
  -32.1570  -21.6197  -14.3407 O   0  0  0  0  0  0  0  0  0  0  0  0
  -29.2693  -15.2152  -13.2864 C   0  0  0  0  0  0  0  0  0  0  0  0
  -28.0998  -17.1342  -12.3540 C   0  0  0  0  0  0  0  0  0  0  0  0
  -31.9878  -12.9948  -11.7679 C   0  0  0  0  0  0  0  0  0  0  0  0
  -28.5289  -15.2981  -14.4298 C   0  0  0  0  0  0  0  0  0  0  0  0
  -27.5251  -16.3582  -14.4132 C   0  0  0  0  0  0  0  0  0  0  0  0
  -33.9098  -20.2029  -13.8471 C   0  0  0  0  0  0  0  0  0  0  0  0
  -33.0094  -19.8793   -2.5794 C   0  0  0  0  0  0  0  0  0  0  0  0
  -31.6669  -14.9585   -9.7189 C   0  0  0  0  0  0  0  0  0  0  0  0
  -27.2911  -17.2246  -13.4589 C   0  0  0  0  0  0  0  0  0  0  0  0
  -32.5375  -13.8579   -9.6715 C   0  0  0  0  0  0  0  0  0  0  0  0
  -34.8322  -19.6544  -13.0404 N   0  0  0  0  0  0  0  0  0  0  0  0
  -34.8462  -17.3544   -1.3743 C   0  0  0  0  0  0  0  0  0  0  0  0
  -30.2347  -14.3136  -13.0987 O   0  0  0  0  0  0  0  0  0  0  0  0
  -33.8169  -21.3168  -10.0735 O   0  0  0  0  0  0  0  0  0  0  0  0
  -32.6516  -20.6276   -3.3610 O   0  0  0  0  0  0  0  0  0  0  0  0
  -32.6814  -12.8999  -10.6841 C   0  0  0  0  0  0  0  0  0  0  0  0
  -35.6985  -18.8029  -13.5419 O   0  0  0  0  0  0  0  0  0  0  0  0
  -34.7845  -20.0313  -11.7541 C   0  0  0  0  0  0  0  0  0  0  0  0
  2  7  1  0
  2 11  1  0
  2 14  2  0
  3  7  1  0
  3  9  1  0
  3 12  2  0
  9 11  1  0
 11 13  2  3
  1  7  2  0
  1  8  1  0
  4  9  2  0
  4 10  1  0
  6 14  1  0
  6  8  2  0
  5 12  1  0
  5 10  2  0
 13 15  1  0
  6 16  1  0
 15 17  1  0
 16 18  1  0
 17 19  2  0
 15 20  2  3
 17 21  1  0
 19 22  1  0
 22 23  1  0
 22 24  2  0
 24 25  1  0
 20 26  1  0
 21 27  2  0
 24 27  1  0
 27 28  1  0
 26 29  2  0
 29 30  1  0
 23 31  1  0
 29 32  1  0
 18 33  1  0
 25 34  1  0
 18 35  1  0
 28 36  1  0
 34 36  1  0
 20 37  1  0
 32 38  2  0
 33 39  2  0
 30 40  1  0
 30 41  2  0
 38 42  1  0
 40 43  2  0
 43 44  1  0
 33 45  1  0
 36 46  1  0
 32 47  1  0
 37 47  1  0
 41 48  1  0
 44 48  2  0
 47 49  2  0
 45 50  2  0
 34 51  1  0
 38 52  1  0
 40 52  1  0
 35 53  2  0
 46 54  2  0
 42 55  2  0
 49 55  1  0
 50 56  1  0
 35 57  1  0
 50 57  1  0
M  CHG  2  50   1  56  -1
M  END
$$$$

     RDKit          3D

 57 68  0  0  0  0  0  0  0  0999 V2000
  -28.1100  -21.1250  -11.7830 C   0  0  0  0  0  0  0  0  0  0  0  0
  -29.1380  -20.1340   -9.8150 C   0  0  0  0  0  0  0  0  0  0  0  0
  -26.8640  -19.6120  -10.1060 C   0  0  0  0  0  0  0  0  0  0  0  0
  -26.3470  -18.1740   -8.1970 C   0  0  0  0  0  0  0  0  0  0  0  0
  -24.6510  -18.7420   -9.8540 C   0  0  0  0  0  0  0  0  0  0  0  0
  -30.4600  -21.5050  -11.2460 C   0  0  0  0  0  0  0  0  0  0  0  0
  -28.0100  -20.3360  -10.6490 C   0  0  0  0  0  0  0  0  0  0  0  0
  -29.3460  -21.7100  -12.0780 C   0  0  0  0  0  0  0  0  0  0  0  0
  -27.2470  -18.9400   -8.9190 C   0  0  0  0  0  0  0  0  0  0  0  0
  -25.0380  -18.0800   -8.6770 C   0  0  0  0  0  0  0  0  0  0  0  0
  -28.6770  -19.2570   -8.7170 C   0  0  0  0  0  0  0  0  0  0  0  0
  -25.5650  -19.5150  -10.5780 C   0  0  0  0  0  0  0  0  0  0  0  0
  -29.5470  -18.7540   -7.5500 C   0  0  0  0  0  0  0  0  0  0  0  0
  -30.3630  -20.7110  -10.1010 C   0  0  0  0  0  0  0  0  0  0  0  0
  -30.2682  -17.6131   -7.7884 C   0  0  0  0  0  0  0  0  0  0  0  0
  -31.8870  -22.2541  -11.5313 C   0  0  0  0  0  0  0  0  0  0  0  0
  -31.0748  -17.2494   -6.6123 C   0  0  0  0  0  0  0  0  0  0  0  0
  -32.7363  -21.5240  -12.0456 N   0  0  0  0  0  0  0  0  0  0  0  0
  -32.2123  -16.5880   -6.7015 C   0  0  0  0  0  0  0  0  0  0  0  0
  -30.4388  -16.8913   -8.9113 C   0  0  0  0  0  0  0  0  0  0  0  0
  -30.8655  -17.8672   -5.3205 C   0  0  0  0  0  0  0  0  0  0  0  0
  -33.2233  -16.3508   -5.7356 C   0  0  0  0  0  0  0  0  0  0  0  0
  -34.3840  -15.6550   -5.9943 O   0  0  0  0  0  0  0  0  0  0  0  0
  -32.9796  -17.0230   -4.5211 C   0  0  0  0  0  0  0  0  0  0  0  0
  -33.9989  -16.9367   -3.4773 O   0  0  0  0  0  0  0  0  0  0  0  0
  -29.6003  -16.8637   -9.9211 C   0  0  0  0  0  0  0  0  0  0  0  0
  -31.8695  -17.8112   -4.3136 C   0  0  0  0  0  0  0  0  0  0  0  0
  -31.6136  -18.3980   -3.0163 O   0  0  0  0  0  0  0  0  0  0  0  0
  -29.8612  -16.0738  -11.0469 C   0  0  0  0  0  0  0  0  0  0  0  0
  -29.0779  -16.1390  -12.1709 C   0  0  0  0  0  0  0  0  0  0  0  0
  -34.5531  -15.0209   -7.0963 C   0  0  0  0  0  0  0  0  0  0  0  0
  -30.8267  -15.0102  -10.7882 C   0  0  0  0  0  0  0  0  0  0  0  0
  -32.9015  -21.0911  -13.2358 C   0  0  0  0  0  0  0  0  0  0  0  0
  -33.6609  -17.1749   -2.2639 C   0  0  0  0  0  0  0  0  0  0  0  0
  -33.8367  -20.9602  -11.2856 C   0  0  0  0  0  0  0  0  0  0  0  0
  -32.8183  -18.5172   -2.1451 C   0  0  0  0  0  0  0  0  0  0  0  0
  -31.0821  -14.0375  -11.8222 C   0  0  0  0  0  0  0  0  0  0  0  0
  -31.7434  -15.1676   -9.7460 C   0  0  0  0  0  0  0  0  0  0  0  0
  -31.5002  -15.9804   -8.7917 N   0  0  0  0  0  0  0  0  0  0  0  0
  -32.3562  -15.7731   -7.7744 C   0  0  0  0  0  0  0  0  0  0  0  0
  -31.9342  -13.0115  -11.6427 O   0  0  0  0  0  0  0  0  0  0  0  0
  -33.0150  -19.8751   -2.5613 C   0  0  0  0  0  0  0  0  0  0  0  0
  -33.5905  -15.1119   -8.1736 C   0  0  0  0  0  0  0  0  0  0  0  0
  -32.6470  -20.5792   -3.3705 O   0  0  0  0  0  0  0  0  0  0  0  0
  -31.9956  -23.5302  -11.4139 O   0  0  0  0  0  0  0  0  0  0  0  0
  -30.2856  -14.0083  -12.9736 C   0  0  0  0  0  0  0  0  0  0  0  0
  -30.4209  -13.0302  -13.9412 O   0  0  0  0  0  0  0  0  0  0  0  0
  -33.3368  -14.4668   -9.4805 C   0  0  0  0  0  0  0  0  0  0  0  0
  -29.1963  -15.0166  -13.2003 C   0  0  0  0  0  0  0  0  0  0  0  0
  -34.2072  -19.6044  -11.6314 C   0  0  0  0  0  0  0  0  0  0  0  0
  -33.6861  -16.4573   -1.2290 C   0  0  0  0  0  0  0  0  0  0  0  0
  -33.6615  -20.0409  -13.4074 C   0  0  0  0  0  0  0  0  0  0  0  0
  -32.5554  -18.5356   -0.7100 C   0  0  0  0  0  0  0  0  0  0  0  0
  -33.0759  -17.4057   -0.0398 C   0  0  0  0  0  0  0  0  0  0  0  0
  -32.5179  -16.6980    0.7818 O   0  0  0  0  0  0  0  0  0  0  0  0
  -35.7451  -14.5115   -7.3895 O   0  0  0  0  0  0  0  0  0  0  0  0
  -28.0924  -16.9742  -12.3495 O   0  0  0  0  0  0  0  0  0  0  0  0
  2  7  1  0
  2 11  1  0
  2 14  2  0
  3  7  1  0
  3  9  1  0
  3 12  2  0
  9 11  1  0
 11 13  2  3
  1  7  2  0
  1  8  1  0
  4  9  2  0
  4 10  1  0
  6 14  1  0
  6  8  2  0
  5 12  1  0
  5 10  2  0
 13 15  1  0
  6 16  1  0
 15 17  1  0
 16 18  1  0
 17 19  2  0
 15 20  2  0
 17 21  1  0
 19 22  1  0
 22 23  1  0
 22 24  2  0
 24 25  1  0
 20 26  1  0
 21 27  2  0
 24 27  1  0
 27 28  1  0
 26 29  2  0
 29 30  1  0
 23 31  1  0
 29 32  1  0
 18 33  1  0
 25 34  1  0
 18 35  1  0
 28 36  1  0
 34 36  1  0
 32 37  1  0
 32 38  2  0
 20 39  1  0
 38 39  1  0
 19 40  1  0
 39 40  1  0
 37 41  2  0
 36 42  1  0
 31 43  1  0
 40 43  2  0
 42 44  2  0
 16 45  2  0
 37 46  1  0
 46 47  1  0
 38 48  1  0
 43 48  1  0
 30 49  1  0
 46 49  2  0
 35 50  1  0
 34 51  2  0
 33 52  1  0
 50 52  1  0
 36 53  1  0
 51 54  1  0
 53 54  1  0
 54 55  1  0
 31 56  2  0
 30 57  2  0
M  END
$$$$

     RDKit          3D

 57 67  0  0  0  0  0  0  0  0999 V2000
  -28.1100  -21.1250  -11.7830 C   0  0  0  0  0  0  0  0  0  0  0  0
  -29.1380  -20.1340   -9.8150 C   0  0  0  0  0  0  0  0  0  0  0  0
  -26.8640  -19.6120  -10.1060 C   0  0  0  0  0  0  0  0  0  0  0  0
  -26.3470  -18.1740   -8.1970 C   0  0  0  0  0  0  0  0  0  0  0  0
  -24.6510  -18.7420   -9.8540 C   0  0  0  0  0  0  0  0  0  0  0  0
  -30.4600  -21.5050  -11.2460 C   0  0  0  0  0  0  0  0  0  0  0  0
  -28.0100  -20.3360  -10.6490 C   0  0  0  0  0  0  0  0  0  0  0  0
  -29.3460  -21.7100  -12.0780 C   0  0  0  0  0  0  0  0  0  0  0  0
  -27.2470  -18.9400   -8.9190 C   0  0  0  0  0  0  0  0  0  0  0  0
  -25.0380  -18.0800   -8.6770 C   0  0  0  0  0  0  0  0  0  0  0  0
  -28.6770  -19.2570   -8.7170 C   0  0  0  0  0  0  0  0  0  0  0  0
  -25.5650  -19.5150  -10.5780 C   0  0  0  0  0  0  0  0  0  0  0  0
  -29.5470  -18.7540   -7.5500 C   0  0  0  0  0  0  0  0  0  0  0  0
  -30.3630  -20.7110  -10.1010 C   0  0  0  0  0  0  0  0  0  0  0  0
  -30.2682  -17.6131   -7.7884 C   0  0  0  0  0  0  0  0  0  0  0  0
  -31.8870  -22.2541  -11.5313 C   0  0  0  0  0  0  0  0  0  0  0  0
  -31.0748  -17.2494   -6.6123 C   0  0  0  0  0  0  0  0  0  0  0  0
  -32.7363  -21.5240  -12.0456 N   0  0  0  0  0  0  0  0  0  0  0  0
  -32.2123  -16.5880   -6.7015 C   0  0  0  0  0  0  0  0  0  0  0  0
  -30.4388  -16.8913   -8.9113 C   0  0  0  0  0  0  0  0  0  0  0  0
  -30.8655  -17.8672   -5.3205 C   0  0  0  0  0  0  0  0  0  0  0  0
  -33.2233  -16.3508   -5.7356 C   0  0  0  0  0  0  0  0  0  0  0  0
  -34.3840  -15.6550   -5.9943 O   0  0  0  0  0  0  0  0  0  0  0  0
  -32.9796  -17.0230   -4.5211 C   0  0  0  0  0  0  0  0  0  0  0  0
  -33.9989  -16.9367   -3.4773 O   0  0  0  0  0  0  0  0  0  0  0  0
  -29.6003  -16.8637   -9.9211 C   0  0  0  0  0  0  0  0  0  0  0  0
  -31.8695  -17.8112   -4.3136 C   0  0  0  0  0  0  0  0  0  0  0  0
  -31.6136  -18.3980   -3.0163 O   0  0  0  0  0  0  0  0  0  0  0  0
  -29.8612  -16.0738  -11.0469 C   0  0  0  0  0  0  0  0  0  0  0  0
  -29.0779  -16.1390  -12.1709 C   0  0  0  0  0  0  0  0  0  0  0  0
  -34.5531  -15.0209   -7.0963 C   0  0  0  0  0  0  0  0  0  0  0  0
  -30.8267  -15.0102  -10.7882 C   0  0  0  0  0  0  0  0  0  0  0  0
  -32.9015  -21.0911  -13.2358 C   0  0  0  0  0  0  0  0  0  0  0  0
  -33.6609  -17.1749   -2.2639 C   0  0  0  0  0  0  0  0  0  0  0  0
  -33.8367  -20.9602  -11.2856 C   0  0  0  0  0  0  0  0  0  0  0  0
  -32.8183  -18.5172   -2.1451 C   0  0  0  0  0  0  0  0  0  0  0  0
  -31.4298  -15.8520   -8.9285 O   0  0  0  0  0  0  0  0  0  0  0  0
  -31.0427  -14.0339  -11.9064 C   0  0  0  0  0  0  0  0  0  0  0  0
  -32.1570  -21.6197  -14.3407 O   0  0  0  0  0  0  0  0  0  0  0  0
  -29.2693  -15.2152  -13.2864 C   0  0  0  0  0  0  0  0  0  0  0  0
  -28.0998  -17.1342  -12.3540 C   0  0  0  0  0  0  0  0  0  0  0  0
  -31.9878  -12.9948  -11.7679 C   0  0  0  0  0  0  0  0  0  0  0  0
  -28.5289  -15.2981  -14.4298 C   0  0  0  0  0  0  0  0  0  0  0  0
  -31.6077  -15.0347   -9.8235 C   0  0  0  0  0  0  0  0  0  0  0  0
  -34.1932  -16.5586   -1.1636 C   0  0  0  0  0  0  0  0  0  0  0  0
  -32.8264  -13.0004  -10.6358 C   0  0  0  0  0  0  0  0  0  0  0  0
  -27.3153  -17.2335  -13.5019 C   0  0  0  0  0  0  0  0  0  0  0  0
  -34.9872  -15.6407   -1.5167 O   0  0  0  0  0  0  0  0  0  0  0  0
  -28.7102  -14.3980  -15.5124 O   0  0  0  0  0  0  0  0  0  0  0  0
  -27.4992  -16.2858  -14.6012 C   0  0  0  0  0  0  0  0  0  0  0  0
  -30.2689  -14.0626  -13.1288 C   0  0  0  0  0  0  0  0  0  0  0  0
  -32.3227  -18.7218   -0.8980 C   0  0  0  0  0  0  0  0  0  0  0  0
  -32.6427  -14.0066   -9.6216 C   0  0  0  0  0  0  0  0  0  0  0  0
  -33.8519  -16.8339    0.0561 O   0  0  0  0  0  0  0  0  0  0  0  0
  -34.6196  -19.9269  -11.8392 C   0  0  0  0  0  0  0  0  0  0  0  0
  -33.9888  -20.2259  -13.7093 C   0  0  0  0  0  0  0  0  0  0  0  0
  -33.4282  -18.3021    0.2788 C   0  0  0  0  0  0  0  0  0  0  0  0
  2  7  1  0
  2 11  1  0
  2 14  2  0
  3  7  1  0
  3  9  1  0
  3 12  2  0
  9 11  1  0
 11 13  2  3
  1  7  2  0
  1  8  1  0
  4  9  2  0
  4 10  1  0
  6 14  1  0
  6  8  2  0
  5 12  1  0
  5 10  2  0
 13 15  1  0
  6 16  1  0
 15 17  1  0
 16 18  1  0
 17 19  2  0
 15 20  2  3
 17 21  1  0
 19 22  1  0
 22 23  1  0
 22 24  2  0
 24 25  1  0
 20 26  1  0
 21 27  2  0
 24 27  1  0
 27 28  1  0
 26 29  2  0
 29 30  1  0
 23 31  1  0
 29 32  1  0
 18 33  1  0
 25 34  1  0
 18 35  1  0
 28 36  1  0
 34 36  1  0
 20 37  1  0
 32 38  2  0
 33 39  2  0
 30 40  1  0
 30 41  2  0
 38 42  1  0
 40 43  2  0
 32 44  1  0
 37 44  1  0
 34 45  1  0
 42 46  2  0
 41 47  1  0
 45 48  2  0
 43 49  1  0
 43 50  1  0
 47 50  2  0
 38 51  1  0
 40 51  1  0
 36 52  1  0
 44 53  2  0
 46 53  1  0
 45 54  1  0
 35 55  1  0
 33 56  1  0
 55 56  1  0
 52 57  1  0
 54 57  1  0
M  END
$$$$

     RDKit          3D

 58 67  0  0  0  0  0  0  0  0999 V2000
  -28.1100  -21.1250  -11.7830 C   0  0  0  0  0  0  0  0  0  0  0  0
  -29.1380  -20.1340   -9.8150 C   0  0  0  0  0  0  0  0  0  0  0  0
  -26.8640  -19.6120  -10.1060 C   0  0  0  0  0  0  0  0  0  0  0  0
  -26.3470  -18.1740   -8.1970 C   0  0  0  0  0  0  0  0  0  0  0  0
  -24.6510  -18.7420   -9.8540 C   0  0  0  0  0  0  0  0  0  0  0  0
  -30.4600  -21.5050  -11.2460 C   0  0  0  0  0  0  0  0  0  0  0  0
  -28.0100  -20.3360  -10.6490 C   0  0  0  0  0  0  0  0  0  0  0  0
  -29.3460  -21.7100  -12.0780 C   0  0  0  0  0  0  0  0  0  0  0  0
  -27.2470  -18.9400   -8.9190 C   0  0  0  0  0  0  0  0  0  0  0  0
  -25.0380  -18.0800   -8.6770 C   0  0  0  0  0  0  0  0  0  0  0  0
  -28.6770  -19.2570   -8.7170 C   0  0  0  0  0  0  0  0  0  0  0  0
  -25.5650  -19.5150  -10.5780 C   0  0  0  0  0  0  0  0  0  0  0  0
  -29.5470  -18.7540   -7.5500 C   0  0  0  0  0  0  0  0  0  0  0  0
  -30.3630  -20.7110  -10.1010 C   0  0  0  0  0  0  0  0  0  0  0  0
  -30.2682  -17.6131   -7.7884 C   0  0  0  0  0  0  0  0  0  0  0  0
  -31.6351  -22.1828  -11.6616 C   0  0  0  0  0  0  0  0  0  0  0  0
  -31.0673  -17.2422   -6.6095 C   0  0  0  0  0  0  0  0  0  0  0  0
  -30.8352  -17.6300   -5.4844 C   0  0  0  0  0  0  0  0  0  0  0  0
  -31.8425  -17.5181   -4.4068 C   0  0  0  0  0  0  0  0  0  0  0  0
  -32.1307  -16.5826   -6.6226 C   0  0  0  0  0  0  0  0  0  0  0  0
  -31.6243  -18.1297   -3.1096 C   0  0  0  0  0  0  0  0  0  0  0  0
  -32.0763  -22.3605  -12.7922 O   0  0  0  0  0  0  0  0  0  0  0  0
  -30.9718  -17.4917   -2.1840 O   0  0  0  0  0  0  0  0  0  0  0  0
  -32.5117  -15.8566   -8.0492 C   0  0  0  0  0  0  0  0  0  0  0  0
  -32.8162  -21.4357  -10.9214 O   0  0  0  0  0  0  0  0  0  0  0  0
  -33.5668  -20.5980  -11.5867 C   0  0  0  0  0  0  0  0  0  0  0  0
  -33.4618  -20.7939  -13.0257 C   0  0  0  0  0  0  0  0  0  0  0  0
  -32.9237  -21.8861  -13.5897 C   0  0  0  0  0  0  0  0  0  0  0  0
  -32.2302  -19.3626   -2.8077 C   0  0  0  0  0  0  0  0  0  0  0  0
  -34.2623  -19.7305  -13.7568 O   0  0  0  0  0  0  0  0  0  0  0  0
  -33.5684  -15.0987   -8.1004 O   0  0  0  0  0  0  0  0  0  0  0  0
  -31.6220  -16.0021   -9.0396 N   0  0  0  0  0  0  0  0  0  0  0  0
  -32.9807  -16.9255   -4.6781 C   0  0  0  0  0  0  0  0  0  0  0  0
  -32.4051  -19.6842   -1.5759 O   0  0  0  0  0  0  0  0  0  0  0  0
  -31.8681  -15.3531  -10.2297 C   0  0  0  0  0  0  0  0  0  0  0  0
  -34.0745  -19.3990  -11.1423 C   0  0  0  0  0  0  0  0  0  0  0  0
  -34.7122  -18.5281  -12.0355 C   0  0  0  0  0  0  0  0  0  0  0  0
  -35.2649  -17.2818  -11.4117 C   0  0  0  0  0  0  0  0  0  0  0  0
  -31.8698  -23.5269  -10.7919 F   0  0  0  0  0  0  0  0  0  0  0  0
  -32.5629  -20.2218   -3.8183 N   0  0  0  0  0  0  0  0  0  0  0  0
  -30.5163  -16.9329   -9.0046 C   0  0  0  0  0  0  0  0  0  0  0  0
  -34.0679  -19.3726   -9.8923 O   0  0  0  0  0  0  0  0  0  0  0  0
  -35.6545  -16.3100  -12.3059 C   0  0  0  0  0  0  0  0  0  0  0  0
  -33.9903  -16.7386   -3.6216 C   0  0  0  0  0  0  0  0  0  0  0  0
  -31.0440  -15.5048  -11.2370 C   0  0  0  0  0  0  0  0  0  0  0  0
  -34.6023  -18.6155  -13.3359 C   0  0  0  0  0  0  0  0  0  0  0  0
  -35.1456  -16.1570   -4.0795 C   0  0  0  0  0  0  0  0  0  0  0  0
  -35.1466  -17.5706  -14.1625 C   0  0  0  0  0  0  0  0  0  0  0  0
  -33.2089  -16.3281   -5.8459 C   0  0  0  0  0  0  0  0  0  0  0  0
  -31.2702  -14.8355  -12.4949 C   0  0  0  0  0  0  0  0  0  0  0  0
  -29.9303  -16.5321  -11.1582 C   0  0  0  0  0  0  0  0  0  0  0  0
  -34.4321  -15.7288   -6.1797 N   0  0  0  0  0  0  0  0  0  0  0  0
  -32.6115  -21.8088  -14.9735 C   0  0  0  0  0  0  0  0  0  0  0  0
  -36.2729  -16.0392   -3.0124 C   0  0  0  0  0  0  0  0  0  0  0  0
  -29.6995  -17.1304  -10.0087 C   0  0  0  0  0  0  0  0  0  0  0  0
  -35.4059  -15.6679   -5.2911 C   0  0  0  0  0  0  0  0  0  0  0  0
  -36.2708  -15.0526  -11.7199 C   0  0  0  0  0  0  0  0  0  0  0  0
  -35.6383  -16.4106  -13.6637 C   0  0  0  0  0  0  0  0  0  0  0  0
  2  7  1  0
  2 11  1  0
  2 14  2  0
  3  7  1  0
  3  9  1  0
  3 12  2  0
  9 11  1  0
 11 13  2  3
  1  7  2  0
  1  8  1  0
  4  9  2  0
  4 10  1  0
  6 14  1  0
  6  8  2  0
  5 12  1  0
  5 10  2  0
 13 15  1  0
  6 16  1  0
 15 17  1  0
 17 18  1  0
 18 19  2  0
 17 20  2  0
 19 21  1  0
 16 22  1  0
 21 23  2  0
 20 24  1  0
 16 25  1  0
 25 26  1  0
 26 27  2  0
 22 28  1  0
 27 28  1  0
 21 29  1  0
 27 30  1  0
 24 31  2  0
 24 32  1  0
 19 33  1  0
 29 34  2  0
 32 35  1  0
 26 36  1  0
 36 37  1  0
 37 38  2  0
 16 39  1  0
 29 40  1  0
 15 41  2  0
 32 41  1  0
 36 42  2  0
 38 43  1  0
 33 44  1  0
 35 45  2  0
 30 46  1  0
 37 46  1  0
 44 47  2  0
 46 48  2  0
 20 49  1  0
 33 49  2  0
 45 50  1  0
 45 51  1  0
 49 52  1  0
 28 53  1  0
 47 54  1  0
 41 55  1  0
 51 55  2  0
 47 56  1  0
 52 56  2  0
 43 57  1  0
 43 58  2  0
 48 58  1  0
M  END
$$$$

     RDKit          3D

 59 70  0  0  0  0  0  0  0  0999 V2000
  -28.1100  -21.1250  -11.7830 C   0  0  0  0  0  0  0  0  0  0  0  0
  -29.1380  -20.1340   -9.8150 C   0  0  0  0  0  0  0  0  0  0  0  0
  -26.8640  -19.6120  -10.1060 C   0  0  0  0  0  0  0  0  0  0  0  0
  -26.3470  -18.1740   -8.1970 C   0  0  0  0  0  0  0  0  0  0  0  0
  -24.6510  -18.7420   -9.8540 C   0  0  0  0  0  0  0  0  0  0  0  0
  -30.4600  -21.5050  -11.2460 C   0  0  0  0  0  0  0  0  0  0  0  0
  -28.0100  -20.3360  -10.6490 C   0  0  0  0  0  0  0  0  0  0  0  0
  -29.3460  -21.7100  -12.0780 C   0  0  0  0  0  0  0  0  0  0  0  0
  -27.2470  -18.9400   -8.9190 C   0  0  0  0  0  0  0  0  0  0  0  0
  -25.0380  -18.0800   -8.6770 C   0  0  0  0  0  0  0  0  0  0  0  0
  -28.6770  -19.2570   -8.7170 C   0  0  0  0  0  0  0  0  0  0  0  0
  -25.5650  -19.5150  -10.5780 C   0  0  0  0  0  0  0  0  0  0  0  0
  -29.5470  -18.7540   -7.5500 C   0  0  0  0  0  0  0  0  0  0  0  0
  -30.3630  -20.7110  -10.1010 C   0  0  0  0  0  0  0  0  0  0  0  0
  -30.2682  -17.6131   -7.7884 C   0  0  0  0  0  0  0  0  0  0  0  0
  -31.8870  -22.2541  -11.5313 C   0  0  0  0  0  0  0  0  0  0  0  0
  -31.0748  -17.2494   -6.6123 C   0  0  0  0  0  0  0  0  0  0  0  0
  -32.7363  -21.5240  -12.0456 N   0  0  0  0  0  0  0  0  0  0  0  0
  -32.2123  -16.5880   -6.7015 C   0  0  0  0  0  0  0  0  0  0  0  0
  -30.4388  -16.8913   -8.9113 C   0  0  0  0  0  0  0  0  0  0  0  0
  -30.8655  -17.8672   -5.3205 C   0  0  0  0  0  0  0  0  0  0  0  0
  -33.2233  -16.3508   -5.7356 C   0  0  0  0  0  0  0  0  0  0  0  0
  -34.3840  -15.6550   -5.9943 O   0  0  0  0  0  0  0  0  0  0  0  0
  -32.9796  -17.0230   -4.5211 C   0  0  0  0  0  0  0  0  0  0  0  0
  -33.9989  -16.9367   -3.4773 O   0  0  0  0  0  0  0  0  0  0  0  0
  -29.6003  -16.8637   -9.9211 C   0  0  0  0  0  0  0  0  0  0  0  0
  -31.8695  -17.8112   -4.3136 C   0  0  0  0  0  0  0  0  0  0  0  0
  -31.6136  -18.3980   -3.0163 O   0  0  0  0  0  0  0  0  0  0  0  0
  -29.8612  -16.0738  -11.0469 C   0  0  0  0  0  0  0  0  0  0  0  0
  -29.0779  -16.1390  -12.1709 C   0  0  0  0  0  0  0  0  0  0  0  0
  -34.5531  -15.0209   -7.0963 C   0  0  0  0  0  0  0  0  0  0  0  0
  -30.8267  -15.0102  -10.7882 C   0  0  0  0  0  0  0  0  0  0  0  0
  -32.9015  -21.0911  -13.2358 C   0  0  0  0  0  0  0  0  0  0  0  0
  -33.6609  -17.1749   -2.2639 C   0  0  0  0  0  0  0  0  0  0  0  0
  -33.8367  -20.9602  -11.2856 C   0  0  0  0  0  0  0  0  0  0  0  0
  -32.8183  -18.5172   -2.1451 C   0  0  0  0  0  0  0  0  0  0  0  0
  -31.0821  -14.0375  -11.8222 C   0  0  0  0  0  0  0  0  0  0  0  0
  -31.7434  -15.1676   -9.7460 C   0  0  0  0  0  0  0  0  0  0  0  0
  -31.5002  -15.9804   -8.7917 N   0  0  0  0  0  0  0  0  0  0  0  0
  -32.3562  -15.7731   -7.7744 C   0  0  0  0  0  0  0  0  0  0  0  0
  -31.9342  -13.0115  -11.6427 O   0  0  0  0  0  0  0  0  0  0  0  0
  -33.0150  -19.8751   -2.5613 C   0  0  0  0  0  0  0  0  0  0  0  0
  -33.5905  -15.1119   -8.1736 C   0  0  0  0  0  0  0  0  0  0  0  0
  -32.6470  -20.5792   -3.3705 O   0  0  0  0  0  0  0  0  0  0  0  0
  -31.9956  -23.5302  -11.4139 O   0  0  0  0  0  0  0  0  0  0  0  0
  -30.2856  -14.0083  -12.9736 C   0  0  0  0  0  0  0  0  0  0  0  0
  -30.4209  -13.0302  -13.9412 O   0  0  0  0  0  0  0  0  0  0  0  0
  -33.3368  -14.4668   -9.4805 C   0  0  0  0  0  0  0  0  0  0  0  0
  -29.1963  -15.0166  -13.2003 C   0  0  0  0  0  0  0  0  0  0  0  0
  -34.2072  -19.6044  -11.6314 C   0  0  0  0  0  0  0  0  0  0  0  0
  -33.6861  -16.4573   -1.2290 C   0  0  0  0  0  0  0  0  0  0  0  0
  -33.6615  -20.0409  -13.4074 C   0  0  0  0  0  0  0  0  0  0  0  0
  -32.5554  -18.5356   -0.7100 C   0  0  0  0  0  0  0  0  0  0  0  0
  -34.4754  -15.2596   -1.2182 C   0  0  0  0  0  0  0  0  0  0  0  0
  -28.2822  -17.1302  -12.4877 O   0  0  0  0  0  0  0  0  0  0  0  0
  -33.1723  -17.2558   -0.1313 C   0  0  0  0  0  0  0  0  0  0  0  0
  -32.6871  -16.4300    0.7787 O   0  0  0  0  0  0  0  0  0  0  0  0
  -31.2690  -18.7406   -0.2049 O   0  0  0  0  0  0  0  0  0  0  0  0
  -35.6313  -14.3052   -7.2727 O   0  0  0  0  0  0  0  0  0  0  0  0
  2  7  1  0
  2 11  1  0
  2 14  2  0
  3  7  1  0
  3  9  1  0
  3 12  2  0
  9 11  1  0
 11 13  2  3
  1  7  2  0
  1  8  1  0
  4  9  2  0
  4 10  1  0
  6 14  1  0
  6  8  2  0
  5 12  1  0
  5 10  2  0
 13 15  1  0
  6 16  1  0
 15 17  1  0
 16 18  1  0
 17 19  2  0
 15 20  2  0
 17 21  1  0
 19 22  1  0
 22 23  1  0
 22 24  2  0
 24 25  1  0
 20 26  1  0
 21 27  2  0
 24 27  1  0
 27 28  1  0
 26 29  2  0
 29 30  1  0
 23 31  1  0
 29 32  1  0
 18 33  1  0
 25 34  1  0
 18 35  1  0
 28 36  1  0
 34 36  1  0
 32 37  1  0
 32 38  2  0
 20 39  1  0
 38 39  1  0
 19 40  1  0
 39 40  1  0
 37 41  2  0
 36 42  1  0
 31 43  1  0
 40 43  2  0
 42 44  2  0
 16 45  2  0
 37 46  1  0
 46 47  1  0
 38 48  1  0
 43 48  1  0
 30 49  1  0
 46 49  2  0
 35 50  1  0
 34 51  2  0
 33 52  1  0
 50 52  1  0
 36 53  1  0
 51 54  1  0
 30 55  2  0
 51 56  1  0
 53 56  1  0
 56 57  1  0
 53 58  1  0
 31 59  2  0
M  END
$$$$

     RDKit          3D

 59 70  0  0  0  0  0  0  0  0999 V2000
  -28.1100  -21.1250  -11.7830 C   0  0  0  0  0  0  0  0  0  0  0  0
  -29.1380  -20.1340   -9.8150 C   0  0  0  0  0  0  0  0  0  0  0  0
  -26.8640  -19.6120  -10.1060 C   0  0  0  0  0  0  0  0  0  0  0  0
  -26.3470  -18.1740   -8.1970 C   0  0  0  0  0  0  0  0  0  0  0  0
  -24.6510  -18.7420   -9.8540 C   0  0  0  0  0  0  0  0  0  0  0  0
  -30.4600  -21.5050  -11.2460 C   0  0  0  0  0  0  0  0  0  0  0  0
  -28.0100  -20.3360  -10.6490 C   0  0  0  0  0  0  0  0  0  0  0  0
  -29.3460  -21.7100  -12.0780 C   0  0  0  0  0  0  0  0  0  0  0  0
  -27.2470  -18.9400   -8.9190 C   0  0  0  0  0  0  0  0  0  0  0  0
  -25.0380  -18.0800   -8.6770 C   0  0  0  0  0  0  0  0  0  0  0  0
  -28.6770  -19.2570   -8.7170 C   0  0  0  0  0  0  0  0  0  0  0  0
  -25.5650  -19.5150  -10.5780 C   0  0  0  0  0  0  0  0  0  0  0  0
  -29.5470  -18.7540   -7.5500 C   0  0  0  0  0  0  0  0  0  0  0  0
  -30.3630  -20.7110  -10.1010 C   0  0  0  0  0  0  0  0  0  0  0  0
  -30.2682  -17.6131   -7.7884 C   0  0  0  0  0  0  0  0  0  0  0  0
  -31.8870  -22.2541  -11.5313 C   0  0  0  0  0  0  0  0  0  0  0  0
  -31.0748  -17.2494   -6.6123 C   0  0  0  0  0  0  0  0  0  0  0  0
  -32.7363  -21.5240  -12.0456 N   0  0  0  0  0  0  0  0  0  0  0  0
  -32.2123  -16.5880   -6.7015 C   0  0  0  0  0  0  0  0  0  0  0  0
  -30.4388  -16.8913   -8.9113 C   0  0  0  0  0  0  0  0  0  0  0  0
  -30.8655  -17.8672   -5.3205 C   0  0  0  0  0  0  0  0  0  0  0  0
  -33.2233  -16.3508   -5.7356 C   0  0  0  0  0  0  0  0  0  0  0  0
  -34.3840  -15.6550   -5.9943 O   0  0  0  0  0  0  0  0  0  0  0  0
  -32.9796  -17.0230   -4.5211 C   0  0  0  0  0  0  0  0  0  0  0  0
  -33.9989  -16.9367   -3.4773 O   0  0  0  0  0  0  0  0  0  0  0  0
  -29.6003  -16.8637   -9.9211 C   0  0  0  0  0  0  0  0  0  0  0  0
  -31.8695  -17.8112   -4.3136 C   0  0  0  0  0  0  0  0  0  0  0  0
  -31.6136  -18.3980   -3.0163 O   0  0  0  0  0  0  0  0  0  0  0  0
  -29.8612  -16.0738  -11.0469 C   0  0  0  0  0  0  0  0  0  0  0  0
  -29.0779  -16.1390  -12.1709 C   0  0  0  0  0  0  0  0  0  0  0  0
  -34.5531  -15.0209   -7.0963 C   0  0  0  0  0  0  0  0  0  0  0  0
  -30.8267  -15.0102  -10.7882 C   0  0  0  0  0  0  0  0  0  0  0  0
  -32.9015  -21.0911  -13.2358 C   0  0  0  0  0  0  0  0  0  0  0  0
  -33.6609  -17.1749   -2.2639 C   0  0  0  0  0  0  0  0  0  0  0  0
  -33.8367  -20.9602  -11.2856 C   0  0  0  0  0  0  0  0  0  0  0  0
  -32.8183  -18.5172   -2.1451 C   0  0  0  0  0  0  0  0  0  0  0  0
  -31.0821  -14.0375  -11.8222 C   0  0  0  0  0  0  0  0  0  0  0  0
  -31.7434  -15.1676   -9.7460 C   0  0  0  0  0  0  0  0  0  0  0  0
  -31.5002  -15.9804   -8.7917 N   0  0  0  0  0  0  0  0  0  0  0  0
  -32.3562  -15.7731   -7.7744 C   0  0  0  0  0  0  0  0  0  0  0  0
  -31.9342  -13.0115  -11.6427 O   0  0  0  0  0  0  0  0  0  0  0  0
  -33.0150  -19.8751   -2.5613 C   0  0  0  0  0  0  0  0  0  0  0  0
  -33.5905  -15.1119   -8.1736 C   0  0  0  0  0  0  0  0  0  0  0  0
  -34.2094  -16.5866   -1.2591 C   0  0  0  0  0  0  0  0  0  0  0  0
  -32.4757  -18.5845   -0.7029 C   0  0  0  0  0  0  0  0  0  0  0  0
  -35.7239  -14.5114   -7.3265 O   0  0  0  0  0  0  0  0  0  0  0  0
  -31.7726  -23.4293  -12.5028 O   0  0  0  0  0  0  0  0  0  0  0  0
  -28.1999  -17.1137  -12.3344 C   0  0  0  0  0  0  0  0  0  0  0  0
  -32.6646  -20.5145   -3.6370 O   0  0  0  0  0  0  0  0  0  0  0  0
  -33.9140  -20.2656  -13.8432 C   0  0  0  0  0  0  0  0  0  0  0  0
  -32.9740  -14.5785   -9.2800 C   0  0  0  0  0  0  0  0  0  0  0  0
  -30.1096  -14.0276  -12.8298 C   0  0  0  0  0  0  0  0  0  0  0  0
  -33.8793  -19.9499  -15.2158 O   0  0  0  0  0  0  0  0  0  0  0  0
  -33.7317  -16.9365    0.0028 C   0  0  0  0  0  0  0  0  0  0  0  0
  -32.9382  -17.7918    0.3885 C   0  0  0  0  0  0  0  0  0  0  0  0
  -29.2101  -15.0026  -13.0631 C   0  0  0  0  0  0  0  0  0  0  0  0
  -34.3384  -16.0474    1.0452 O   0  0  0  0  0  0  0  0  0  0  0  0
  -34.8871  -19.7561  -13.1184 N   0  0  0  0  0  0  0  0  0  0  0  0
  -34.9060  -20.0879  -11.7934 C   0  0  0  0  0  0  0  0  0  0  0  0
  2  7  1  0
  2 11  1  0
  2 14  2  0
  3  7  1  0
  3  9  1  0
  3 12  2  0
  9 11  1  0
 11 13  2  3
  1  7  2  0
  1  8  1  0
  4  9  2  0
  4 10  1  0
  6 14  1  0
  6  8  2  0
  5 12  1  0
  5 10  2  0
 13 15  1  0
  6 16  1  0
 15 17  1  0
 16 18  1  0
 17 19  2  0
 15 20  2  0
 17 21  1  0
 19 22  1  0
 22 23  1  0
 22 24  2  0
 24 25  1  0
 20 26  1  0
 21 27  2  0
 24 27  1  0
 27 28  1  0
 26 29  2  0
 29 30  1  0
 23 31  1  0
 29 32  1  0
 18 33  1  0
 25 34  1  0
 18 35  1  0
 28 36  1  0
 34 36  1  0
 32 37  1  0
 32 38  2  0
 20 39  1  0
 38 39  1  0
 19 40  1  0
 39 40  1  0
 37 41  2  0
 36 42  1  0
 31 43  1  0
 40 43  2  0
 34 44  2  0
 36 45  1  0
 31 46  2  0
 16 47  1  0
 30 48  1  0
 42 49  2  0
 33 50  1  0
 38 51  1  0
 43 51  1  0
 37 52  1  0
 50 53  2  0
 44 54  1  0
 45 55  2  0
 54 55  1  0
 30 56  1  0
 52 56  2  0
 54 57  2  0
 50 58  1  0
 35 59  2  0
 58 59  2  0
M  END
$$$$

     RDKit          3D

 59 68  0  0  0  0  0  0  0  0999 V2000
  -28.1100  -21.1250  -11.7830 C   0  0  0  0  0  0  0  0  0  0  0  0
  -29.1380  -20.1340   -9.8150 C   0  0  0  0  0  0  0  0  0  0  0  0
  -26.8640  -19.6120  -10.1060 C   0  0  0  0  0  0  0  0  0  0  0  0
  -26.3470  -18.1740   -8.1970 C   0  0  0  0  0  0  0  0  0  0  0  0
  -24.6510  -18.7420   -9.8540 C   0  0  0  0  0  0  0  0  0  0  0  0
  -30.4600  -21.5050  -11.2460 C   0  0  0  0  0  0  0  0  0  0  0  0
  -28.0100  -20.3360  -10.6490 C   0  0  0  0  0  0  0  0  0  0  0  0
  -29.3460  -21.7100  -12.0780 C   0  0  0  0  0  0  0  0  0  0  0  0
  -27.2470  -18.9400   -8.9190 C   0  0  0  0  0  0  0  0  0  0  0  0
  -25.0380  -18.0800   -8.6770 C   0  0  0  0  0  0  0  0  0  0  0  0
  -28.6770  -19.2570   -8.7170 C   0  0  0  0  0  0  0  0  0  0  0  0
  -25.5650  -19.5150  -10.5780 C   0  0  0  0  0  0  0  0  0  0  0  0
  -29.5470  -18.7540   -7.5500 C   0  0  0  0  0  0  0  0  0  0  0  0
  -30.3630  -20.7110  -10.1010 C   0  0  0  0  0  0  0  0  0  0  0  0
  -30.2682  -17.6131   -7.7884 C   0  0  0  0  0  0  0  0  0  0  0  0
  -31.8870  -22.2541  -11.5313 C   0  0  0  0  0  0  0  0  0  0  0  0
  -31.0748  -17.2494   -6.6123 C   0  0  0  0  0  0  0  0  0  0  0  0
  -32.7363  -21.5240  -12.0456 N   0  0  0  0  0  0  0  0  0  0  0  0
  -32.2123  -16.5880   -6.7015 C   0  0  0  0  0  0  0  0  0  0  0  0
  -30.4388  -16.8913   -8.9113 C   0  0  0  0  0  0  0  0  0  0  0  0
  -30.8655  -17.8672   -5.3205 C   0  0  0  0  0  0  0  0  0  0  0  0
  -33.2233  -16.3508   -5.7356 C   0  0  0  0  0  0  0  0  0  0  0  0
  -34.3840  -15.6550   -5.9943 O   0  0  0  0  0  0  0  0  0  0  0  0
  -32.9796  -17.0230   -4.5211 C   0  0  0  0  0  0  0  0  0  0  0  0
  -33.9989  -16.9367   -3.4773 O   0  0  0  0  0  0  0  0  0  0  0  0
  -29.6003  -16.8637   -9.9211 C   0  0  0  0  0  0  0  0  0  0  0  0
  -31.8695  -17.8112   -4.3136 C   0  0  0  0  0  0  0  0  0  0  0  0
  -31.6136  -18.3980   -3.0163 O   0  0  0  0  0  0  0  0  0  0  0  0
  -29.8612  -16.0738  -11.0469 C   0  0  0  0  0  0  0  0  0  0  0  0
  -29.0779  -16.1390  -12.1709 C   0  0  0  0  0  0  0  0  0  0  0  0
  -34.5531  -15.0209   -7.0963 C   0  0  0  0  0  0  0  0  0  0  0  0
  -30.8267  -15.0102  -10.7882 C   0  0  0  0  0  0  0  0  0  0  0  0
  -32.9015  -21.0911  -13.2358 C   0  0  0  0  0  0  0  0  0  0  0  0
  -33.6609  -17.1749   -2.2639 C   0  0  0  0  0  0  0  0  0  0  0  0
  -33.8367  -20.9602  -11.2856 C   0  0  0  0  0  0  0  0  0  0  0  0
  -32.8183  -18.5172   -2.1451 C   0  0  0  0  0  0  0  0  0  0  0  0
  -31.4298  -15.8520   -8.9285 O   0  0  0  0  0  0  0  0  0  0  0  0
  -31.0427  -14.0339  -11.9064 C   0  0  0  0  0  0  0  0  0  0  0  0
  -32.1570  -21.6197  -14.3407 O   0  0  0  0  0  0  0  0  0  0  0  0
  -29.2693  -15.2152  -13.2864 C   0  0  0  0  0  0  0  0  0  0  0  0
  -28.0998  -17.1342  -12.3540 C   0  0  0  0  0  0  0  0  0  0  0  0
  -31.9878  -12.9948  -11.7679 C   0  0  0  0  0  0  0  0  0  0  0  0
  -28.5289  -15.2981  -14.4298 C   0  0  0  0  0  0  0  0  0  0  0  0
  -27.5251  -16.3582  -14.4132 C   0  0  0  0  0  0  0  0  0  0  0  0
  -33.9098  -20.2029  -13.8471 C   0  0  0  0  0  0  0  0  0  0  0  0
  -33.0094  -19.8793   -2.5794 C   0  0  0  0  0  0  0  0  0  0  0  0
  -27.3145  -17.2592  -13.4694 C   0  0  0  0  0  0  0  0  0  0  0  0
  -31.6189  -15.0570   -9.8387 C   0  0  0  0  0  0  0  0  0  0  0  0
  -33.7527  -21.4177  -10.0211 O   0  0  0  0  0  0  0  0  0  0  0  0
  -34.8303  -20.2017  -11.7592 N   0  0  0  0  0  0  0  0  0  0  0  0
  -30.3174  -14.1220  -13.2284 C   0  0  0  0  0  0  0  0  0  0  0  0
  -34.2189  -16.5690   -1.2580 C   0  0  0  0  0  0  0  0  0  0  0  0
  -32.4744  -18.5885   -0.6935 C   0  0  0  0  0  0  0  0  0  0  0  0
  -32.6393  -20.5132   -3.6393 O   0  0  0  0  0  0  0  0  0  0  0  0
  -34.8415  -19.7406  -12.9894 C   0  0  0  0  0  0  0  0  0  0  0  0
  -32.7907  -12.9606  -10.6115 C   0  0  0  0  0  0  0  0  0  0  0  0
  -33.7478  -11.9287  -10.5006 C   0  0  0  0  0  0  0  0  0  0  0  0
  -32.6092  -13.9883   -9.6390 C   0  0  0  0  0  0  0  0  0  0  0  0
  -35.1746  -15.5157   -1.5661 C   0  0  0  0  0  0  0  0  0  0  0  0
  2  7  1  0
  2 11  1  0
  2 14  2  0
  3  7  1  0
  3  9  1  0
  3 12  2  0
  9 11  1  0
 11 13  2  3
  1  7  2  0
  1  8  1  0
  4  9  2  0
  4 10  1  0
  6 14  1  0
  6  8  2  0
  5 12  1  0
  5 10  2  0
 13 15  1  0
  6 16  1  0
 15 17  1  0
 16 18  1  0
 17 19  2  0
 15 20  2  3
 17 21  1  0
 19 22  1  0
 22 23  1  0
 22 24  2  0
 24 25  1  0
 20 26  1  0
 21 27  2  0
 24 27  1  0
 27 28  1  0
 26 29  2  0
 29 30  1  0
 23 31  1  0
 29 32  1  0
 18 33  1  0
 25 34  1  0
 18 35  1  0
 28 36  1  0
 34 36  1  0
 20 37  1  0
 32 38  2  0
 33 39  2  0
 30 40  1  0
 30 41  2  0
 38 42  1  0
 40 43  2  0
 43 44  1  0
 33 45  1  0
 36 46  1  0
 41 47  1  0
 44 47  2  0
 32 48  1  0
 37 48  1  0
 35 49  2  0
 35 50  1  0
 38 51  1  0
 40 51  1  0
 34 52  2  3
 36 53  1  0
 46 54  1  0
 45 55  2  0
 50 55  1  0
 42 56  2  0
 56 57  1  0
 48 58  2  0
 56 58  1  0
 52 59  1  0
M  END
$$$$

     RDKit          3D

 59 70  0  0  0  0  0  0  0  0999 V2000
  -28.1100  -21.1250  -11.7830 C   0  0  0  0  0  0  0  0  0  0  0  0
  -29.1380  -20.1340   -9.8150 C   0  0  0  0  0  0  0  0  0  0  0  0
  -26.8640  -19.6120  -10.1060 C   0  0  0  0  0  0  0  0  0  0  0  0
  -26.3470  -18.1740   -8.1970 C   0  0  0  0  0  0  0  0  0  0  0  0
  -24.6510  -18.7420   -9.8540 C   0  0  0  0  0  0  0  0  0  0  0  0
  -30.4600  -21.5050  -11.2460 C   0  0  0  0  0  0  0  0  0  0  0  0
  -28.0100  -20.3360  -10.6490 C   0  0  0  0  0  0  0  0  0  0  0  0
  -29.3460  -21.7100  -12.0780 C   0  0  0  0  0  0  0  0  0  0  0  0
  -27.2470  -18.9400   -8.9190 C   0  0  0  0  0  0  0  0  0  0  0  0
  -25.0380  -18.0800   -8.6770 C   0  0  0  0  0  0  0  0  0  0  0  0
  -28.6770  -19.2570   -8.7170 C   0  0  0  0  0  0  0  0  0  0  0  0
  -25.5650  -19.5150  -10.5780 C   0  0  0  0  0  0  0  0  0  0  0  0
  -29.5470  -18.7540   -7.5500 C   0  0  0  0  0  0  0  0  0  0  0  0
  -30.3630  -20.7110  -10.1010 C   0  0  0  0  0  0  0  0  0  0  0  0
  -30.2682  -17.6131   -7.7884 C   0  0  0  0  0  0  0  0  0  0  0  0
  -31.8870  -22.2541  -11.5313 C   0  0  0  0  0  0  0  0  0  0  0  0
  -31.0748  -17.2494   -6.6123 C   0  0  0  0  0  0  0  0  0  0  0  0
  -32.7363  -21.5240  -12.0456 N   0  0  0  0  0  0  0  0  0  0  0  0
  -32.2123  -16.5880   -6.7015 C   0  0  0  0  0  0  0  0  0  0  0  0
  -30.4388  -16.8913   -8.9113 C   0  0  0  0  0  0  0  0  0  0  0  0
  -30.8655  -17.8672   -5.3205 C   0  0  0  0  0  0  0  0  0  0  0  0
  -33.2233  -16.3508   -5.7356 C   0  0  0  0  0  0  0  0  0  0  0  0
  -34.3840  -15.6550   -5.9943 O   0  0  0  0  0  0  0  0  0  0  0  0
  -32.9796  -17.0230   -4.5211 C   0  0  0  0  0  0  0  0  0  0  0  0
  -33.9989  -16.9367   -3.4773 O   0  0  0  0  0  0  0  0  0  0  0  0
  -29.6003  -16.8637   -9.9211 C   0  0  0  0  0  0  0  0  0  0  0  0
  -31.8695  -17.8112   -4.3136 C   0  0  0  0  0  0  0  0  0  0  0  0
  -31.6136  -18.3980   -3.0163 O   0  0  0  0  0  0  0  0  0  0  0  0
  -29.8612  -16.0738  -11.0469 C   0  0  0  0  0  0  0  0  0  0  0  0
  -29.0779  -16.1390  -12.1709 C   0  0  0  0  0  0  0  0  0  0  0  0
  -34.5531  -15.0209   -7.0963 C   0  0  0  0  0  0  0  0  0  0  0  0
  -30.8267  -15.0102  -10.7882 C   0  0  0  0  0  0  0  0  0  0  0  0
  -32.9015  -21.0911  -13.2358 C   0  0  0  0  0  0  0  0  0  0  0  0
  -33.6609  -17.1749   -2.2639 C   0  0  0  0  0  0  0  0  0  0  0  0
  -33.8367  -20.9602  -11.2856 C   0  0  0  0  0  0  0  0  0  0  0  0
  -32.8183  -18.5172   -2.1451 C   0  0  0  0  0  0  0  0  0  0  0  0
  -31.0821  -14.0375  -11.8222 C   0  0  0  0  0  0  0  0  0  0  0  0
  -31.7434  -15.1676   -9.7460 C   0  0  0  0  0  0  0  0  0  0  0  0
  -31.5002  -15.9804   -8.7917 N   0  0  0  0  0  0  0  0  0  0  0  0
  -32.3562  -15.7731   -7.7744 C   0  0  0  0  0  0  0  0  0  0  0  0
  -31.9342  -13.0115  -11.6427 O   0  0  0  0  0  0  0  0  0  0  0  0
  -33.0150  -19.8751   -2.5613 C   0  0  0  0  0  0  0  0  0  0  0  0
  -32.6414  -20.5825   -3.3696 O   0  0  0  0  0  0  0  0  0  0  0  0
  -33.5656  -15.2139   -8.3163 C   0  0  0  0  0  0  0  0  0  0  0  0
  -35.6582  -14.3620   -7.2120 O   0  0  0  0  0  0  0  0  0  0  0  0
  -34.0144  -16.4803   -1.2594 C   0  0  0  0  0  0  0  0  0  0  0  0
  -32.1608  -21.6250  -14.3393 O   0  0  0  0  0  0  0  0  0  0  0  0
  -28.1962  -17.1134  -12.3310 C   0  0  0  0  0  0  0  0  0  0  0  0
  -33.8477  -20.0976  -13.6341 C   0  0  0  0  0  0  0  0  0  0  0  0
  -32.5083  -18.5072   -0.6899 C   0  0  0  0  0  0  0  0  0  0  0  0
  -31.5791  -19.5015   -0.2861 O   0  0  0  0  0  0  0  0  0  0  0  0
  -34.7055  -19.6770  -12.7244 C   0  0  0  0  0  0  0  0  0  0  0  0
  -33.4166  -16.9275   -0.0070 C   0  0  0  0  0  0  0  0  0  0  0  0
  -34.7363  -20.0693  -11.5459 N   0  0  0  0  0  0  0  0  0  0  0  0
  -33.4261  -14.5179   -9.5567 S   0  0  0  0  0  0  0  0  0  0  0  0
  -33.8884  -15.9745    1.1413 O   0  0  0  0  0  0  0  0  0  0  0  0
  -32.9726  -17.8119    0.1757 C   0  0  0  0  0  0  0  0  0  0  0  0
  -30.2681  -13.9803  -12.9387 O   0  0  0  0  0  0  0  0  0  0  0  0
  -29.2382  -14.9123  -13.1495 C   0  0  0  0  0  0  0  0  0  0  0  0
  2  7  1  0
  2 11  1  0
  2 14  2  0
  3  7  1  0
  3  9  1  0
  3 12  2  0
  9 11  1  0
 11 13  2  3
  1  7  2  0
  1  8  1  0
  4  9  2  0
  4 10  1  0
  6 14  1  0
  6  8  2  0
  5 12  1  0
  5 10  2  0
 13 15  1  0
  6 16  1  0
 15 17  1  0
 16 18  1  0
 17 19  2  0
 15 20  2  0
 17 21  1  0
 19 22  1  0
 22 23  1  0
 22 24  2  0
 24 25  1  0
 20 26  1  0
 21 27  2  0
 24 27  1  0
 27 28  1  0
 26 29  2  0
 29 30  1  0
 23 31  1  0
 29 32  1  0
 18 33  1  0
 25 34  1  0
 18 35  1  0
 28 36  1  0
 34 36  1  0
 32 37  1  0
 32 38  2  0
 20 39  1  0
 38 39  1  0
 19 40  1  0
 39 40  1  0
 37 41  2  0
 36 42  1  0
 42 43  2  0
 31 44  1  0
 40 44  2  0
 31 45  2  0
 34 46  2  0
 33 47  2  0
 30 48  1  0
 33 49  1  0
 36 50  1  0
 50 51  1  0
 49 52  2  0
 46 53  1  0
 35 54  2  0
 52 54  1  0
 38 55  1  0
 44 55  1  0
 53 56  1  0
 50 57  1  0
 53 57  1  0
 37 58  1  0
 30 59  2  0
 58 59  1  0
M  END
$$$$

     RDKit          3D

 60 70  0  0  0  0  0  0  0  0999 V2000
  -28.1100  -21.1250  -11.7830 C   0  0  0  0  0  0  0  0  0  0  0  0
  -29.1380  -20.1340   -9.8150 C   0  0  0  0  0  0  0  0  0  0  0  0
  -26.8640  -19.6120  -10.1060 C   0  0  0  0  0  0  0  0  0  0  0  0
  -26.3470  -18.1740   -8.1970 C   0  0  0  0  0  0  0  0  0  0  0  0
  -24.6510  -18.7420   -9.8540 C   0  0  0  0  0  0  0  0  0  0  0  0
  -30.4600  -21.5050  -11.2460 C   0  0  0  0  0  0  0  0  0  0  0  0
  -28.0100  -20.3360  -10.6490 C   0  0  0  0  0  0  0  0  0  0  0  0
  -29.3460  -21.7100  -12.0780 C   0  0  0  0  0  0  0  0  0  0  0  0
  -27.2470  -18.9400   -8.9190 C   0  0  0  0  0  0  0  0  0  0  0  0
  -25.0380  -18.0800   -8.6770 C   0  0  0  0  0  0  0  0  0  0  0  0
  -28.6770  -19.2570   -8.7170 C   0  0  0  0  0  0  0  0  0  0  0  0
  -25.5650  -19.5150  -10.5780 C   0  0  0  0  0  0  0  0  0  0  0  0
  -29.5470  -18.7540   -7.5500 C   0  0  0  0  0  0  0  0  0  0  0  0
  -30.3630  -20.7110  -10.1010 C   0  0  0  0  0  0  0  0  0  0  0  0
  -30.2682  -17.6131   -7.7884 C   0  0  0  0  0  0  0  0  0  0  0  0
  -31.8870  -22.2541  -11.5313 C   0  0  0  0  0  0  0  0  0  0  0  0
  -31.0748  -17.2494   -6.6123 C   0  0  0  0  0  0  0  0  0  0  0  0
  -32.7363  -21.5240  -12.0456 N   0  0  0  0  0  0  0  0  0  0  0  0
  -32.2123  -16.5880   -6.7015 C   0  0  0  0  0  0  0  0  0  0  0  0
  -30.4388  -16.8913   -8.9113 C   0  0  0  0  0  0  0  0  0  0  0  0
  -30.8655  -17.8672   -5.3205 C   0  0  0  0  0  0  0  0  0  0  0  0
  -33.2233  -16.3508   -5.7356 C   0  0  0  0  0  0  0  0  0  0  0  0
  -34.3840  -15.6550   -5.9943 O   0  0  0  0  0  0  0  0  0  0  0  0
  -32.9796  -17.0230   -4.5211 C   0  0  0  0  0  0  0  0  0  0  0  0
  -33.9989  -16.9367   -3.4773 O   0  0  0  0  0  0  0  0  0  0  0  0
  -29.6003  -16.8637   -9.9211 C   0  0  0  0  0  0  0  0  0  0  0  0
  -31.8695  -17.8112   -4.3136 C   0  0  0  0  0  0  0  0  0  0  0  0
  -31.6136  -18.3980   -3.0163 O   0  0  0  0  0  0  0  0  0  0  0  0
  -29.8612  -16.0738  -11.0469 C   0  0  0  0  0  0  0  0  0  0  0  0
  -29.0779  -16.1390  -12.1709 C   0  0  0  0  0  0  0  0  0  0  0  0
  -34.5531  -15.0209   -7.0963 C   0  0  0  0  0  0  0  0  0  0  0  0
  -30.8267  -15.0102  -10.7882 C   0  0  0  0  0  0  0  0  0  0  0  0
  -32.9015  -21.0911  -13.2358 C   0  0  0  0  0  0  0  0  0  0  0  0
  -33.6609  -17.1749   -2.2639 C   0  0  0  0  0  0  0  0  0  0  0  0
  -33.8367  -20.9602  -11.2856 C   0  0  0  0  0  0  0  0  0  0  0  0
  -32.8183  -18.5172   -2.1451 C   0  0  0  0  0  0  0  0  0  0  0  0
  -31.4298  -15.8520   -8.9285 O   0  0  0  0  0  0  0  0  0  0  0  0
  -31.0427  -14.0339  -11.9064 C   0  0  0  0  0  0  0  0  0  0  0  0
  -32.1570  -21.6197  -14.3407 O   0  0  0  0  0  0  0  0  0  0  0  0
  -29.2693  -15.2152  -13.2864 C   0  0  0  0  0  0  0  0  0  0  0  0
  -28.0998  -17.1342  -12.3540 C   0  0  0  0  0  0  0  0  0  0  0  0
  -31.9878  -12.9948  -11.7679 C   0  0  0  0  0  0  0  0  0  0  0  0
  -28.5289  -15.2981  -14.4298 C   0  0  0  0  0  0  0  0  0  0  0  0
  -31.6077  -15.0347   -9.8235 C   0  0  0  0  0  0  0  0  0  0  0  0
  -34.1932  -16.5586   -1.1636 C   0  0  0  0  0  0  0  0  0  0  0  0
  -30.3306  -14.1645  -13.1632 O   0  0  0  0  0  0  0  0  0  0  0  0
  -27.5583  -16.2466  -14.5709 C   0  0  0  0  0  0  0  0  0  0  0  0
  -34.9788  -15.6336   -1.5166 O   0  0  0  0  0  0  0  0  0  0  0  0
  -32.3305  -18.7143   -0.8877 C   0  0  0  0  0  0  0  0  0  0  0  0
  -33.8561  -16.8413    0.0591 O   0  0  0  0  0  0  0  0  0  0  0  0
  -32.1008  -12.1019  -12.7819 O   0  0  0  0  0  0  0  0  0  0  0  0
  -33.8479  -20.0939  -13.6350 C   0  0  0  0  0  0  0  0  0  0  0  0
  -32.7761  -13.1668  -10.6022 C   0  0  0  0  0  0  0  0  0  0  0  0
  -26.7843  -16.3493  -15.7350 O   0  0  0  0  0  0  0  0  0  0  0  0
  -32.6340  -17.5533    0.2639 C   0  0  0  0  0  0  0  0  0  0  0  0
  -33.7816  -12.0621  -10.5330 O   0  0  0  0  0  0  0  0  0  0  0  0
  -32.0360  -17.3908    1.2937 O   0  0  0  0  0  0  0  0  0  0  0  0
  -27.2983  -17.2001  -13.5247 C   0  0  0  0  0  0  0  0  0  0  0  0
  -32.6215  -14.0091   -9.6159 C   0  0  0  0  0  0  0  0  0  0  0  0
  -34.4908  -19.8322  -12.4677 C   0  0  0  0  0  0  0  0  0  0  0  0
  2  7  1  0
  2 11  1  0
  2 14  2  0
  3  7  1  0
  3  9  1  0
  3 12  2  0
  9 11  1  0
 11 13  2  3
  1  7  2  0
  1  8  1  0
  4  9  2  0
  4 10  1  0
  6 14  1  0
  6  8  2  0
  5 12  1  0
  5 10  2  0
 13 15  1  0
  6 16  1  0
 15 17  1  0
 16 18  1  0
 17 19  2  0
 15 20  2  3
 17 21  1  0
 19 22  1  0
 22 23  1  0
 22 24  2  0
 24 25  1  0
 20 26  1  0
 21 27  2  0
 24 27  1  0
 27 28  1  0
 26 29  2  0
 29 30  1  0
 23 31  1  0
 29 32  1  0
 18 33  1  0
 25 34  1  0
 18 35  1  0
 28 36  1  0
 34 36  1  0
 20 37  1  0
 32 38  2  0
 33 39  2  0
 30 40  1  0
 30 41  2  0
 38 42  1  0
 40 43  2  0
 32 44  1  0
 37 44  1  0
 34 45  1  0
 38 46  1  0
 40 46  1  0
 43 47  1  0
 45 48  2  0
 36 49  1  0
 45 50  1  0
 42 51  1  0
 33 52  1  0
 42 53  2  0
 47 54  1  0
 49 55  1  0
 50 55  1  0
 53 56  1  0
 55 57  2  0
 41 58  1  0
 47 58  2  0
 44 59  2  0
 53 59  1  0
 35 60  1  0
 52 60  2  0
M  END
$$$$

     RDKit          3D

 60 70  0  0  0  0  0  0  0  0999 V2000
  -28.1100  -21.1250  -11.7830 C   0  0  0  0  0  0  0  0  0  0  0  0
  -29.1380  -20.1340   -9.8150 C   0  0  0  0  0  0  0  0  0  0  0  0
  -26.8640  -19.6120  -10.1060 C   0  0  0  0  0  0  0  0  0  0  0  0
  -26.3470  -18.1740   -8.1970 C   0  0  0  0  0  0  0  0  0  0  0  0
  -24.6510  -18.7420   -9.8540 C   0  0  0  0  0  0  0  0  0  0  0  0
  -30.4600  -21.5050  -11.2460 C   0  0  0  0  0  0  0  0  0  0  0  0
  -28.0100  -20.3360  -10.6490 C   0  0  0  0  0  0  0  0  0  0  0  0
  -29.3460  -21.7100  -12.0780 C   0  0  0  0  0  0  0  0  0  0  0  0
  -27.2470  -18.9400   -8.9190 C   0  0  0  0  0  0  0  0  0  0  0  0
  -25.0380  -18.0800   -8.6770 C   0  0  0  0  0  0  0  0  0  0  0  0
  -28.6770  -19.2570   -8.7170 C   0  0  0  0  0  0  0  0  0  0  0  0
  -25.5650  -19.5150  -10.5780 C   0  0  0  0  0  0  0  0  0  0  0  0
  -29.5470  -18.7540   -7.5500 C   0  0  0  0  0  0  0  0  0  0  0  0
  -30.3630  -20.7110  -10.1010 C   0  0  0  0  0  0  0  0  0  0  0  0
  -30.2682  -17.6131   -7.7884 C   0  0  0  0  0  0  0  0  0  0  0  0
  -31.8870  -22.2541  -11.5313 C   0  0  0  0  0  0  0  0  0  0  0  0
  -31.0748  -17.2494   -6.6123 C   0  0  0  0  0  0  0  0  0  0  0  0
  -32.7363  -21.5240  -12.0456 N   0  0  0  0  0  0  0  0  0  0  0  0
  -32.2123  -16.5880   -6.7015 C   0  0  0  0  0  0  0  0  0  0  0  0
  -30.4388  -16.8913   -8.9113 C   0  0  0  0  0  0  0  0  0  0  0  0
  -30.8655  -17.8672   -5.3205 C   0  0  0  0  0  0  0  0  0  0  0  0
  -33.2233  -16.3508   -5.7356 C   0  0  0  0  0  0  0  0  0  0  0  0
  -34.3840  -15.6550   -5.9943 O   0  0  0  0  0  0  0  0  0  0  0  0
  -32.9796  -17.0230   -4.5211 C   0  0  0  0  0  0  0  0  0  0  0  0
  -33.9989  -16.9367   -3.4773 O   0  0  0  0  0  0  0  0  0  0  0  0
  -29.6003  -16.8637   -9.9211 C   0  0  0  0  0  0  0  0  0  0  0  0
  -31.8695  -17.8112   -4.3136 C   0  0  0  0  0  0  0  0  0  0  0  0
  -31.6136  -18.3980   -3.0163 O   0  0  0  0  0  0  0  0  0  0  0  0
  -29.8612  -16.0738  -11.0469 C   0  0  0  0  0  0  0  0  0  0  0  0
  -29.0779  -16.1390  -12.1709 C   0  0  0  0  0  0  0  0  0  0  0  0
  -34.5531  -15.0209   -7.0963 C   0  0  0  0  0  0  0  0  0  0  0  0
  -30.8267  -15.0102  -10.7882 C   0  0  0  0  0  0  0  0  0  0  0  0
  -32.9015  -21.0911  -13.2358 C   0  0  0  0  0  0  0  0  0  0  0  0
  -33.6609  -17.1749   -2.2639 C   0  0  0  0  0  0  0  0  0  0  0  0
  -33.8367  -20.9602  -11.2856 C   0  0  0  0  0  0  0  0  0  0  0  0
  -32.8183  -18.5172   -2.1451 C   0  0  0  0  0  0  0  0  0  0  0  0
  -31.4298  -15.8520   -8.9285 O   0  0  0  0  0  0  0  0  0  0  0  0
  -31.0427  -14.0339  -11.9064 C   0  0  0  0  0  0  0  0  0  0  0  0
  -32.1570  -21.6197  -14.3407 O   0  0  0  0  0  0  0  0  0  0  0  0
  -29.2693  -15.2152  -13.2864 C   0  0  0  0  0  0  0  0  0  0  0  0
  -28.0998  -17.1342  -12.3540 C   0  0  0  0  0  0  0  0  0  0  0  0
  -31.9878  -12.9948  -11.7679 C   0  0  0  0  0  0  0  0  0  0  0  0
  -28.5289  -15.2981  -14.4298 C   0  0  0  0  0  0  0  0  0  0  0  0
  -31.6077  -15.0347   -9.8235 C   0  0  0  0  0  0  0  0  0  0  0  0
  -34.1932  -16.5586   -1.1636 C   0  0  0  0  0  0  0  0  0  0  0  0
  -30.3306  -14.1645  -13.1632 O   0  0  0  0  0  0  0  0  0  0  0  0
  -27.5583  -16.2466  -14.5709 C   0  0  0  0  0  0  0  0  0  0  0  0
  -34.9788  -15.6336   -1.5166 O   0  0  0  0  0  0  0  0  0  0  0  0
  -32.3305  -18.7143   -0.8877 C   0  0  0  0  0  0  0  0  0  0  0  0
  -33.8561  -16.8413    0.0591 O   0  0  0  0  0  0  0  0  0  0  0  0
  -32.1008  -12.1019  -12.7819 O   0  0  0  0  0  0  0  0  0  0  0  0
  -33.8479  -20.0939  -13.6350 C   0  0  0  0  0  0  0  0  0  0  0  0
  -32.7761  -13.1668  -10.6022 C   0  0  0  0  0  0  0  0  0  0  0  0
  -26.7843  -16.3493  -15.7350 O   0  0  0  0  0  0  0  0  0  0  0  0
  -32.6340  -17.5533    0.2639 C   0  0  0  0  0  0  0  0  0  0  0  0
  -33.7816  -12.0621  -10.5330 O   0  0  0  0  0  0  0  0  0  0  0  0
  -32.0360  -17.3908    1.2937 O   0  0  0  0  0  0  0  0  0  0  0  0
  -27.2983  -17.2001  -13.5247 C   0  0  0  0  0  0  0  0  0  0  0  0
  -32.6215  -14.0091   -9.6159 C   0  0  0  0  0  0  0  0  0  0  0  0
  -34.5877  -19.9419  -12.1532 C   0  0  0  0  0  0  0  0  0  0  0  0
  2  7  1  0
  2 11  1  0
  2 14  2  0
  3  7  1  0
  3  9  1  0
  3 12  2  0
  9 11  1  0
 11 13  2  3
  1  7  2  0
  1  8  1  0
  4  9  2  0
  4 10  1  0
  6 14  1  0
  6  8  2  0
  5 12  1  0
  5 10  2  0
 13 15  1  0
  6 16  1  0
 15 17  1  0
 16 18  1  0
 17 19  2  0
 15 20  2  3
 17 21  1  0
 19 22  1  0
 22 23  1  0
 22 24  2  0
 24 25  1  0
 20 26  1  0
 21 27  2  0
 24 27  1  0
 27 28  1  0
 26 29  2  0
 29 30  1  0
 23 31  1  0
 29 32  1  0
 18 33  1  0
 25 34  1  0
 18 35  1  0
 28 36  1  0
 34 36  1  0
 20 37  1  0
 32 38  2  0
 33 39  2  0
 30 40  1  0
 30 41  2  0
 38 42  1  0
 40 43  2  0
 32 44  1  0
 37 44  1  0
 34 45  1  0
 38 46  1  0
 40 46  1  0
 43 47  1  0
 45 48  2  0
 36 49  1  0
 45 50  1  0
 42 51  1  0
 33 52  1  0
 42 53  2  0
 47 54  1  0
 49 55  1  0
 50 55  1  0
 53 56  1  0
 55 57  2  0
 41 58  1  0
 47 58  2  0
 44 59  2  0
 53 59  1  0
 35 60  2  0
 52 60  1  0
M  END
$$$$

     RDKit          3D

 60 70  0  0  0  0  0  0  0  0999 V2000
  -28.1100  -21.1250  -11.7830 C   0  0  0  0  0  0  0  0  0  0  0  0
  -29.1380  -20.1340   -9.8150 C   0  0  0  0  0  0  0  0  0  0  0  0
  -26.8640  -19.6120  -10.1060 C   0  0  0  0  0  0  0  0  0  0  0  0
  -26.3470  -18.1740   -8.1970 C   0  0  0  0  0  0  0  0  0  0  0  0
  -24.6510  -18.7420   -9.8540 C   0  0  0  0  0  0  0  0  0  0  0  0
  -30.4600  -21.5050  -11.2460 C   0  0  0  0  0  0  0  0  0  0  0  0
  -28.0100  -20.3360  -10.6490 C   0  0  0  0  0  0  0  0  0  0  0  0
  -29.3460  -21.7100  -12.0780 C   0  0  0  0  0  0  0  0  0  0  0  0
  -27.2470  -18.9400   -8.9190 C   0  0  0  0  0  0  0  0  0  0  0  0
  -25.0380  -18.0800   -8.6770 C   0  0  0  0  0  0  0  0  0  0  0  0
  -28.6770  -19.2570   -8.7170 C   0  0  0  0  0  0  0  0  0  0  0  0
  -25.5650  -19.5150  -10.5780 C   0  0  0  0  0  0  0  0  0  0  0  0
  -29.5470  -18.7540   -7.5500 C   0  0  0  0  0  0  0  0  0  0  0  0
  -30.3630  -20.7110  -10.1010 C   0  0  0  0  0  0  0  0  0  0  0  0
  -30.2682  -17.6131   -7.7884 C   0  0  0  0  0  0  0  0  0  0  0  0
  -31.8870  -22.2541  -11.5313 C   0  0  0  0  0  0  0  0  0  0  0  0
  -31.0748  -17.2494   -6.6123 C   0  0  0  0  0  0  0  0  0  0  0  0
  -32.7363  -21.5240  -12.0456 N   0  0  0  0  0  0  0  0  0  0  0  0
  -32.2123  -16.5880   -6.7015 C   0  0  0  0  0  0  0  0  0  0  0  0
  -30.4388  -16.8913   -8.9113 C   0  0  0  0  0  0  0  0  0  0  0  0
  -30.8655  -17.8672   -5.3205 C   0  0  0  0  0  0  0  0  0  0  0  0
  -33.2233  -16.3508   -5.7356 C   0  0  0  0  0  0  0  0  0  0  0  0
  -34.3840  -15.6550   -5.9943 O   0  0  0  0  0  0  0  0  0  0  0  0
  -32.9796  -17.0230   -4.5211 C   0  0  0  0  0  0  0  0  0  0  0  0
  -33.9989  -16.9367   -3.4773 O   0  0  0  0  0  0  0  0  0  0  0  0
  -29.6003  -16.8637   -9.9211 C   0  0  0  0  0  0  0  0  0  0  0  0
  -31.8695  -17.8112   -4.3136 C   0  0  0  0  0  0  0  0  0  0  0  0
  -31.6136  -18.3980   -3.0163 O   0  0  0  0  0  0  0  0  0  0  0  0
  -29.8612  -16.0738  -11.0469 C   0  0  0  0  0  0  0  0  0  0  0  0
  -29.0779  -16.1390  -12.1709 C   0  0  0  0  0  0  0  0  0  0  0  0
  -34.5531  -15.0209   -7.0963 C   0  0  0  0  0  0  0  0  0  0  0  0
  -30.8267  -15.0102  -10.7882 C   0  0  0  0  0  0  0  0  0  0  0  0
  -32.9015  -21.0911  -13.2358 C   0  0  0  0  0  0  0  0  0  0  0  0
  -33.6609  -17.1749   -2.2639 C   0  0  0  0  0  0  0  0  0  0  0  0
  -33.8367  -20.9602  -11.2856 C   0  0  0  0  0  0  0  0  0  0  0  0
  -32.8183  -18.5172   -2.1451 C   0  0  0  0  0  0  0  0  0  0  0  0
  -31.0821  -14.0375  -11.8222 C   0  0  0  0  0  0  0  0  0  0  0  0
  -31.7434  -15.1676   -9.7460 C   0  0  0  0  0  0  0  0  0  0  0  0
  -31.5002  -15.9804   -8.7917 N   0  0  0  0  0  0  0  0  0  0  0  0
  -32.3562  -15.7731   -7.7744 C   0  0  0  0  0  0  0  0  0  0  0  0
  -31.9342  -13.0115  -11.6427 O   0  0  0  0  0  0  0  0  0  0  0  0
  -33.0150  -19.8751   -2.5613 C   0  0  0  0  0  0  0  0  0  0  0  0
  -32.6414  -20.5825   -3.3696 O   0  0  0  0  0  0  0  0  0  0  0  0
  -33.5656  -15.2139   -8.3163 C   0  0  0  0  0  0  0  0  0  0  0  0
  -35.6582  -14.3620   -7.2120 O   0  0  0  0  0  0  0  0  0  0  0  0
  -34.0144  -16.4803   -1.2594 C   0  0  0  0  0  0  0  0  0  0  0  0
  -32.1608  -21.6250  -14.3393 O   0  0  0  0  0  0  0  0  0  0  0  0
  -33.8965  -20.1934  -13.8502 C   0  0  0  0  0  0  0  0  0  0  0  0
  -32.5083  -18.5071   -0.6898 C   0  0  0  0  0  0  0  0  0  0  0  0
  -34.9450  -15.3558   -1.5891 C   0  0  0  0  0  0  0  0  0  0  0  0
  -33.0183  -14.5365   -9.4706 C   0  0  0  0  0  0  0  0  0  0  0  0
  -33.8694  -19.7418  -15.2359 C   0  0  0  0  0  0  0  0  0  0  0  0
  -30.2051  -13.9954  -12.9225 N   0  0  0  0  0  0  0  0  0  0  0  0
  -34.6350  -19.7990  -12.0181 C   0  0  0  0  0  0  0  0  0  0  0  0
  -29.2548  -14.9705  -13.1361 C   0  0  0  0  0  0  0  0  0  0  0  0
  -34.7440  -19.7042  -13.1325 C   0  0  0  0  0  0  0  0  0  0  0  0
  -28.4846  -14.9698  -14.2280 N   0  0  0  0  0  0  0  0  0  0  0  0
  -32.9337  -20.1536  -16.1275 O   0  0  0  0  0  0  0  0  0  0  0  0
  -34.5829  -14.1583   -1.2617 C   0  0  0  0  0  0  0  0  0  0  0  0
  -34.7696  -18.8603  -15.7212 O   0  0  0  0  0  0  0  0  0  0  0  0
  2  7  1  0
  2 11  1  0
  2 14  2  0
  3  7  1  0
  3  9  1  0
  3 12  2  0
  9 11  1  0
 11 13  2  3
  1  7  2  0
  1  8  1  0
  4  9  2  0
  4 10  1  0
  6 14  1  0
  6  8  2  0
  5 12  1  0
  5 10  2  0
 13 15  1  0
  6 16  1  0
 15 17  1  0
 16 18  1  0
 17 19  2  0
 15 20  2  0
 17 21  1  0
 19 22  1  0
 22 23  1  0
 22 24  2  0
 24 25  1  0
 20 26  1  0
 21 27  2  0
 24 27  1  0
 27 28  1  0
 26 29  2  0
 29 30  1  0
 23 31  1  0
 29 32  1  0
 18 33  1  0
 25 34  1  0
 18 35  1  0
 28 36  1  0
 34 36  1  0
 32 37  1  0
 32 38  2  0
 20 39  1  0
 38 39  1  0
 19 40  1  0
 39 40  1  0
 37 41  2  0
 36 42  1  0
 42 43  2  0
 31 44  1  0
 40 44  2  0
 31 45  2  0
 34 46  2  3
 33 47  2  0
 33 48  1  0
 36 49  1  0
 46 50  1  0
 38 51  1  0
 44 51  1  0
 48 52  1  0
 37 53  1  0
 35 54  1  0
 30 55  1  0
 53 55  2  0
 48 56  2  0
 54 56  1  0
 55 57  1  0
 52 58  1  0
 50 59  2  0
 52 60  2  0
M  END
$$$$

     RDKit          3D

 60 70  0  0  0  0  0  0  0  0999 V2000
  -28.1100  -21.1250  -11.7830 C   0  0  0  0  0  0  0  0  0  0  0  0
  -29.1380  -20.1340   -9.8150 C   0  0  0  0  0  0  0  0  0  0  0  0
  -26.8640  -19.6120  -10.1060 C   0  0  0  0  0  0  0  0  0  0  0  0
  -26.3470  -18.1740   -8.1970 C   0  0  0  0  0  0  0  0  0  0  0  0
  -24.6510  -18.7420   -9.8540 C   0  0  0  0  0  0  0  0  0  0  0  0
  -30.4600  -21.5050  -11.2460 C   0  0  0  0  0  0  0  0  0  0  0  0
  -28.0100  -20.3360  -10.6490 C   0  0  0  0  0  0  0  0  0  0  0  0
  -29.3460  -21.7100  -12.0780 C   0  0  0  0  0  0  0  0  0  0  0  0
  -27.2470  -18.9400   -8.9190 C   0  0  0  0  0  0  0  0  0  0  0  0
  -25.0380  -18.0800   -8.6770 C   0  0  0  0  0  0  0  0  0  0  0  0
  -28.6770  -19.2570   -8.7170 C   0  0  0  0  0  0  0  0  0  0  0  0
  -25.5650  -19.5150  -10.5780 C   0  0  0  0  0  0  0  0  0  0  0  0
  -29.5470  -18.7540   -7.5500 C   0  0  0  0  0  0  0  0  0  0  0  0
  -30.3630  -20.7110  -10.1010 C   0  0  0  0  0  0  0  0  0  0  0  0
  -30.2682  -17.6131   -7.7884 C   0  0  0  0  0  0  0  0  0  0  0  0
  -31.8870  -22.2541  -11.5313 C   0  0  0  0  0  0  0  0  0  0  0  0
  -31.0748  -17.2494   -6.6123 C   0  0  0  0  0  0  0  0  0  0  0  0
  -32.7363  -21.5240  -12.0456 N   0  0  0  0  0  0  0  0  0  0  0  0
  -32.2123  -16.5880   -6.7015 C   0  0  0  0  0  0  0  0  0  0  0  0
  -30.4388  -16.8913   -8.9113 C   0  0  0  0  0  0  0  0  0  0  0  0
  -30.8655  -17.8672   -5.3205 C   0  0  0  0  0  0  0  0  0  0  0  0
  -33.2233  -16.3508   -5.7356 C   0  0  0  0  0  0  0  0  0  0  0  0
  -34.3840  -15.6550   -5.9943 O   0  0  0  0  0  0  0  0  0  0  0  0
  -32.9796  -17.0230   -4.5211 C   0  0  0  0  0  0  0  0  0  0  0  0
  -33.9989  -16.9367   -3.4773 O   0  0  0  0  0  0  0  0  0  0  0  0
  -29.6003  -16.8637   -9.9211 C   0  0  0  0  0  0  0  0  0  0  0  0
  -31.8695  -17.8112   -4.3136 C   0  0  0  0  0  0  0  0  0  0  0  0
  -31.6136  -18.3980   -3.0163 O   0  0  0  0  0  0  0  0  0  0  0  0
  -29.8612  -16.0738  -11.0469 C   0  0  0  0  0  0  0  0  0  0  0  0
  -29.0779  -16.1390  -12.1709 C   0  0  0  0  0  0  0  0  0  0  0  0
  -34.5531  -15.0209   -7.0963 C   0  0  0  0  0  0  0  0  0  0  0  0
  -30.8267  -15.0102  -10.7882 C   0  0  0  0  0  0  0  0  0  0  0  0
  -32.9015  -21.0911  -13.2358 C   0  0  0  0  0  0  0  0  0  0  0  0
  -33.6609  -17.1749   -2.2639 C   0  0  0  0  0  0  0  0  0  0  0  0
  -33.8367  -20.9602  -11.2856 C   0  0  0  0  0  0  0  0  0  0  0  0
  -32.8183  -18.5172   -2.1451 C   0  0  0  0  0  0  0  0  0  0  0  0
  -31.4298  -15.8520   -8.9285 O   0  0  0  0  0  0  0  0  0  0  0  0
  -31.0427  -14.0339  -11.9064 C   0  0  0  0  0  0  0  0  0  0  0  0
  -32.1570  -21.6197  -14.3407 O   0  0  0  0  0  0  0  0  0  0  0  0
  -29.2693  -15.2152  -13.2864 C   0  0  0  0  0  0  0  0  0  0  0  0
  -28.0998  -17.1342  -12.3540 C   0  0  0  0  0  0  0  0  0  0  0  0
  -31.9878  -12.9948  -11.7679 C   0  0  0  0  0  0  0  0  0  0  0  0
  -28.5289  -15.2981  -14.4298 C   0  0  0  0  0  0  0  0  0  0  0  0
  -31.6077  -15.0347   -9.8235 C   0  0  0  0  0  0  0  0  0  0  0  0
  -34.1932  -16.5586   -1.1636 C   0  0  0  0  0  0  0  0  0  0  0  0
  -30.3306  -14.1645  -13.1632 O   0  0  0  0  0  0  0  0  0  0  0  0
  -27.5583  -16.2466  -14.5709 C   0  0  0  0  0  0  0  0  0  0  0  0
  -34.9788  -15.6336   -1.5166 O   0  0  0  0  0  0  0  0  0  0  0  0
  -32.3305  -18.7143   -0.8877 C   0  0  0  0  0  0  0  0  0  0  0  0
  -33.8561  -16.8413    0.0591 O   0  0  0  0  0  0  0  0  0  0  0  0
  -32.1008  -12.1019  -12.7819 O   0  0  0  0  0  0  0  0  0  0  0  0
  -33.8479  -20.0939  -13.6350 C   0  0  0  0  0  0  0  0  0  0  0  0
  -32.7761  -13.1668  -10.6022 C   0  0  0  0  0  0  0  0  0  0  0  0
  -26.7843  -16.3493  -15.7350 O   0  0  0  0  0  0  0  0  0  0  0  0
  -32.6340  -17.5533    0.2639 C   0  0  0  0  0  0  0  0  0  0  0  0
  -33.7816  -12.0621  -10.5330 O   0  0  0  0  0  0  0  0  0  0  0  0
  -32.0360  -17.3908    1.2937 O   0  0  0  0  0  0  0  0  0  0  0  0
  -27.2983  -17.2001  -13.5247 C   0  0  0  0  0  0  0  0  0  0  0  0
  -32.6215  -14.0091   -9.6159 C   0  0  0  0  0  0  0  0  0  0  0  0
  -34.4908  -19.8322  -12.4677 C   0  0  0  0  0  0  0  0  0  0  0  0
  2  7  1  0
  2 11  1  0
  2 14  2  0
  3  7  1  0
  3  9  1  0
  3 12  2  0
  9 11  1  0
 11 13  2  3
  1  7  2  0
  1  8  1  0
  4  9  2  0
  4 10  1  0
  6 14  1  0
  6  8  2  0
  5 12  1  0
  5 10  2  0
 13 15  1  0
  6 16  1  0
 15 17  1  0
 16 18  1  0
 17 19  2  0
 15 20  2  3
 17 21  1  0
 19 22  1  0
 22 23  1  0
 22 24  2  0
 24 25  1  0
 20 26  1  0
 21 27  2  0
 24 27  1  0
 27 28  1  0
 26 29  2  0
 29 30  1  0
 23 31  1  0
 29 32  1  0
 18 33  1  0
 25 34  1  0
 18 35  1  0
 28 36  1  0
 34 36  1  0
 20 37  1  0
 32 38  2  0
 33 39  2  0
 30 40  1  0
 30 41  2  0
 38 42  1  0
 40 43  2  0
 32 44  1  0
 37 44  1  0
 34 45  1  0
 38 46  1  0
 40 46  1  0
 43 47  1  0
 45 48  2  0
 36 49  1  0
 45 50  1  0
 42 51  1  0
 33 52  1  0
 42 53  2  0
 47 54  1  0
 49 55  1  0
 50 55  1  0
 53 56  1  0
 55 57  2  0
 41 58  1  0
 47 58  2  0
 44 59  2  0
 53 59  1  0
 35 60  1  0
 52 60  1  0
M  END
$$$$
