
     RDKit          3D

 28 32  0  0  0  0  0  0  0  0999 V2000
  -28.1100  -21.1250  -11.7830 C   0  0  0  0  0  0  0  0  0  0  0  0
  -29.1380  -20.1340   -9.8150 C   0  0  0  0  0  0  0  0  0  0  0  0
  -26.8640  -19.6120  -10.1060 C   0  0  0  0  0  0  0  0  0  0  0  0
  -26.3470  -18.1740   -8.1970 C   0  0  0  0  0  0  0  0  0  0  0  0
  -24.6510  -18.7420   -9.8540 C   0  0  0  0  0  0  0  0  0  0  0  0
  -30.4600  -21.5050  -11.2460 C   0  0  0  0  0  0  0  0  0  0  0  0
  -28.0100  -20.3360  -10.6490 C   0  0  0  0  0  0  0  0  0  0  0  0
  -29.3460  -21.7100  -12.0780 C   0  0  0  0  0  0  0  0  0  0  0  0
  -27.2470  -18.9400   -8.9190 C   0  0  0  0  0  0  0  0  0  0  0  0
  -25.0380  -18.0800   -8.6770 C   0  0  0  0  0  0  0  0  0  0  0  0
  -28.6770  -19.2570   -8.7170 C   0  0  0  0  0  0  0  0  0  0  0  0
  -25.5650  -19.5150  -10.5780 C   0  0  0  0  0  0  0  0  0  0  0  0
  -29.5470  -18.7540   -7.5500 C   0  0  0  0  0  0  0  0  0  0  0  0
  -30.3630  -20.7110  -10.1010 C   0  0  0  0  0  0  0  0  0  0  0  0
  -30.2682  -17.6131   -7.7884 C   0  0  0  0  0  0  0  0  0  0  0  0
  -31.0512  -17.2267   -6.5999 C   0  0  0  0  0  0  0  0  0  0  0  0
  -31.6350  -22.1780  -11.6524 N   0  0  0  0  0  0  0  0  0  0  0  0
  -31.6630  -23.1225  -12.5763 C   0  0  0  0  0  0  0  0  0  0  0  0
  -32.1953  -22.5475  -13.8008 C   0  0  0  0  0  0  0  0  0  0  0  0
  -30.7939  -17.5771   -5.4752 C   0  0  0  0  0  0  0  0  0  0  0  0
  -31.6742  -17.2865   -4.2914 C   0  0  0  0  0  0  0  0  0  0  0  0
  -32.4301  -18.3532   -3.7032 C   0  0  0  0  0  0  0  0  0  0  0  0
  -32.8246  -21.3680  -11.9887 C   0  0  0  0  0  0  0  0  0  0  0  0
  -32.3982  -18.6149   -2.4474 C   0  0  0  0  0  0  0  0  0  0  0  0
  -33.3208  -21.7584  -13.2062 C   0  0  0  0  0  0  0  0  0  0  0  0
  -32.6706  -19.6346   -4.3401 C   0  0  0  0  0  0  0  0  0  0  0  0
  -32.6674  -19.9877   -1.9514 C   0  0  0  0  0  0  0  0  0  0  0  0
  -32.9317  -20.6419   -3.3758 O   0  0  0  0  0  0  0  0  0  0  0  0
  2  7  1  0
  2 11  1  0
  2 14  2  0
  3  7  1  0
  3  9  1  0
  3 12  2  0
  9 11  1  0
 11 13  2  3
  1  7  2  0
  1  8  1  0
  4  9  2  0
  4 10  1  0
  6 14  1  0
  6  8  2  0
  5 12  1  0
  5 10  2  0
 13 15  1  0
 15 16  1  0
  6 17  1  0
 17 18  1  0
 18 19  1  0
 16 20  2  3
 20 21  1  0
 21 22  1  0
 17 23  1  0
 22 24  1  0
 19 25  1  0
 23 25  1  0
 22 26  1  0
 24 27  1  0
 26 28  1  0
 27 28  1  0
M  END
$$$$
