
     RDKit          3D

 28 31  0  0  0  0  0  0  0  0999 V2000
  -28.1100  -21.1250  -11.7830 C   0  0  0  0  0  0  0  0  0  0  0  0
  -29.1380  -20.1340   -9.8150 C   0  0  0  0  0  0  0  0  0  0  0  0
  -26.8640  -19.6120  -10.1060 C   0  0  0  0  0  0  0  0  0  0  0  0
  -26.3470  -18.1740   -8.1970 C   0  0  0  0  0  0  0  0  0  0  0  0
  -24.6510  -18.7420   -9.8540 C   0  0  0  0  0  0  0  0  0  0  0  0
  -30.4600  -21.5050  -11.2460 C   0  0  0  0  0  0  0  0  0  0  0  0
  -28.0100  -20.3360  -10.6490 C   0  0  0  0  0  0  0  0  0  0  0  0
  -29.3460  -21.7100  -12.0780 C   0  0  0  0  0  0  0  0  0  0  0  0
  -27.2470  -18.9400   -8.9190 C   0  0  0  0  0  0  0  0  0  0  0  0
  -25.0380  -18.0800   -8.6770 C   0  0  0  0  0  0  0  0  0  0  0  0
  -28.6770  -19.2570   -8.7170 C   0  0  0  0  0  0  0  0  0  0  0  0
  -25.5650  -19.5150  -10.5780 C   0  0  0  0  0  0  0  0  0  0  0  0
  -29.5470  -18.7540   -7.5500 C   0  0  0  0  0  0  0  0  0  0  0  0
  -30.3630  -20.7110  -10.1010 C   0  0  0  0  0  0  0  0  0  0  0  0
  -31.8812  -22.2717  -11.5420 C   0  0  0  0  0  0  0  0  0  0  0  0
  -30.2470  -17.5906   -7.7865 C   0  0  0  0  0  0  0  0  0  0  0  0
  -31.0535  -17.2270   -6.6127 C   0  0  0  0  0  0  0  0  0  0  0  0
  -30.8576  -17.5830   -5.4955 C   0  0  0  0  0  0  0  0  0  0  0  0
  -31.6799  -15.9960   -6.6331 C   0  0  0  0  0  0  0  0  0  0  0  0
  -32.3810  -15.6299   -5.5260 C   0  0  0  0  0  0  0  0  0  0  0  0
  -32.4058  -16.1069   -4.5895 C   0  0  0  0  0  0  0  0  0  0  0  0
  -31.6373  -17.3416   -4.3521 C   0  0  0  0  0  0  0  0  0  0  0  0
  -31.5865  -18.1153   -2.9853 C   0  0  0  0  0  0  0  0  0  0  0  0
  -32.3874  -19.2744   -2.9826 C   0  0  0  0  0  0  0  0  0  0  0  0
  -32.7386  -21.5406  -12.0425 O   0  0  0  0  0  0  0  0  0  0  0  0
  -31.8668  -23.4979  -11.9950 O   0  0  0  0  0  0  0  0  0  0  0  0
  -32.6249  -19.9896   -1.8743 C   0  0  0  0  0  0  0  0  0  0  0  0
  -32.2260  -20.0529   -4.2745 O   0  0  0  0  0  0  0  0  0  0  0  0
  2  7  1  0
  2 11  1  0
  2 14  2  0
  3  7  1  0
  3  9  1  0
  3 12  2  0
  9 11  1  0
 11 13  2  3
  1  7  2  0
  1  8  1  0
  4  9  2  0
  4 10  1  0
  6 14  1  0
  6  8  2  0
  5 12  1  0
  5 10  2  0
  6 15  1  0
 13 16  1  0
 16 17  1  0
 17 18  1  0
 17 19  2  0
 19 20  1  0
 20 21  2  0
 18 22  2  0
 21 22  1  0
 22 23  1  0
 23 24  1  0
 15 25  1  0
 15 26  2  0
 24 27  1  0
 24 28  1  0
M  END
$$$$
