
     RDKit          3D

 28 32  0  0  0  0  0  0  0  0999 V2000
  -28.1100  -21.1250  -11.7830 C   0  0  0  0  0  0  0  0  0  0  0  0
  -29.1380  -20.1340   -9.8150 C   0  0  0  0  0  0  0  0  0  0  0  0
  -26.8640  -19.6120  -10.1060 C   0  0  0  0  0  0  0  0  0  0  0  0
  -26.3470  -18.1740   -8.1970 C   0  0  0  0  0  0  0  0  0  0  0  0
  -24.6510  -18.7420   -9.8540 C   0  0  0  0  0  0  0  0  0  0  0  0
  -30.4600  -21.5050  -11.2460 C   0  0  0  0  0  0  0  0  0  0  0  0
  -28.0100  -20.3360  -10.6490 C   0  0  0  0  0  0  0  0  0  0  0  0
  -29.3460  -21.7100  -12.0780 C   0  0  0  0  0  0  0  0  0  0  0  0
  -27.2470  -18.9400   -8.9190 C   0  0  0  0  0  0  0  0  0  0  0  0
  -25.0380  -18.0800   -8.6770 C   0  0  0  0  0  0  0  0  0  0  0  0
  -28.6770  -19.2570   -8.7170 C   0  0  0  0  0  0  0  0  0  0  0  0
  -25.5650  -19.5150  -10.5780 C   0  0  0  0  0  0  0  0  0  0  0  0
  -29.5470  -18.7540   -7.5500 C   0  0  0  0  0  0  0  0  0  0  0  0
  -30.3630  -20.7110  -10.1010 C   0  0  0  0  0  0  0  0  0  0  0  0
  -31.8812  -22.2717  -11.5420 C   0  0  0  0  0  0  0  0  0  0  0  0
  -30.2470  -17.5906   -7.7865 C   0  0  0  0  0  0  0  0  0  0  0  0
  -31.0535  -17.2270   -6.6127 C   0  0  0  0  0  0  0  0  0  0  0  0
  -32.7324  -21.5336  -12.0563 N   0  0  0  0  0  0  0  0  0  0  0  0
  -30.7453  -17.7981   -5.4303 C   0  0  0  0  0  0  0  0  0  0  0  0
  -32.1146  -16.3154   -6.6407 C   0  0  0  0  0  0  0  0  0  0  0  0
  -32.5569  -20.9435  -13.2784 C   0  0  0  0  0  0  0  0  0  0  0  0
  -31.4490  -17.7329   -4.3577 C   0  0  0  0  0  0  0  0  0  0  0  0
  -33.3584  -20.2429  -11.3263 C   0  0  0  0  0  0  0  0  0  0  0  0
  -33.3501  -19.9356  -13.8868 C   0  0  0  0  0  0  0  0  0  0  0  0
  -32.6595  -16.9171   -4.3517 C   0  0  0  0  0  0  0  0  0  0  0  0
  -33.8517  -19.0285  -12.8363 C   0  0  0  0  0  0  0  0  0  0  0  0
  -32.9541  -16.2299   -5.5027 C   0  0  0  0  0  0  0  0  0  0  0  0
  -34.3470  -19.5572  -11.7059 C   0  0  0  0  0  0  0  0  0  0  0  0
  2  7  1  0
  2 11  1  0
  2 14  2  0
  3  7  1  0
  3  9  1  0
  3 12  2  0
  9 11  1  0
 11 13  2  3
  1  7  2  0
  1  8  1  0
  4  9  2  0
  4 10  1  0
  6 14  1  0
  6  8  2  0
  5 12  1  0
  5 10  2  0
  6 15  1  0
 13 16  1  0
 16 17  1  0
 15 18  1  0
 17 19  1  0
 17 20  2  0
 18 21  1  0
 19 22  2  0
 18 23  1  0
 21 24  1  0
 22 25  1  0
 24 26  1  0
 20 27  1  0
 25 27  2  0
 23 28  1  0
 26 28  1  0
M  END
$$$$
