
     RDKit          3D

 29 33  0  0  0  0  0  0  0  0999 V2000
  -28.1100  -21.1250  -11.7830 C   0  0  0  0  0  0  0  0  0  0  0  0
  -29.1380  -20.1340   -9.8150 C   0  0  0  0  0  0  0  0  0  0  0  0
  -26.8640  -19.6120  -10.1060 C   0  0  0  0  0  0  0  0  0  0  0  0
  -26.3470  -18.1740   -8.1970 C   0  0  0  0  0  0  0  0  0  0  0  0
  -24.6510  -18.7420   -9.8540 C   0  0  0  0  0  0  0  0  0  0  0  0
  -30.4600  -21.5050  -11.2460 C   0  0  0  0  0  0  0  0  0  0  0  0
  -28.0100  -20.3360  -10.6490 C   0  0  0  0  0  0  0  0  0  0  0  0
  -29.3460  -21.7100  -12.0780 C   0  0  0  0  0  0  0  0  0  0  0  0
  -27.2470  -18.9400   -8.9190 C   0  0  0  0  0  0  0  0  0  0  0  0
  -25.0380  -18.0800   -8.6770 C   0  0  0  0  0  0  0  0  0  0  0  0
  -28.6770  -19.2570   -8.7170 C   0  0  0  0  0  0  0  0  0  0  0  0
  -25.5650  -19.5150  -10.5780 C   0  0  0  0  0  0  0  0  0  0  0  0
  -29.5470  -18.7540   -7.5500 C   0  0  0  0  0  0  0  0  0  0  0  0
  -30.3630  -20.7110  -10.1010 C   0  0  0  0  0  0  0  0  0  0  0  0
  -31.6372  -22.1895  -11.6585 N   0  0  0  0  0  0  0  0  0  0  0  0
  -30.2571  -17.6003   -7.7868 C   0  0  0  0  0  0  0  0  0  0  0  0
  -31.0594  -17.2358   -6.6100 C   0  0  0  0  0  0  0  0  0  0  0  0
  -32.1858  -16.7350   -6.5482 C   0  0  0  0  0  0  0  0  0  0  0  0
  -30.4666  -16.8425   -8.5780 C   0  0  0  0  0  0  0  0  0  0  0  0
  -33.0899  -16.6205   -5.3853 C   0  0  0  0  0  0  0  0  0  0  0  0
  -32.6558  -16.1516   -7.8199 C   0  0  0  0  0  0  0  0  0  0  0  0
  -33.7738  -15.3917   -7.9225 C   0  0  0  0  0  0  0  0  0  0  0  0
  -32.8064  -16.8502   -4.3848 O   0  0  0  0  0  0  0  0  0  0  0  0
  -31.6370  -16.0904   -8.8574 C   0  0  0  0  0  0  0  0  0  0  0  0
  -34.7531  -15.4577   -6.8868 C   0  0  0  0  0  0  0  0  0  0  0  0
  -32.8413  -21.9482  -11.0656 O   0  0  0  0  0  0  0  0  0  0  0  0
  -34.4514  -16.1126   -5.6979 N   0  0  0  0  0  0  0  0  0  0  0  0
  -31.6965  -23.3379  -12.4639 C   0  0  0  0  0  0  0  0  0  0  0  0
  -35.9710  -14.9795   -6.9041 O   0  0  0  0  0  0  0  0  0  0  0  0
  2  7  1  0
  2 11  1  0
  2 14  2  0
  3  7  1  0
  3  9  1  0
  3 12  2  0
  9 11  1  0
 11 13  2  3
  1  7  2  0
  1  8  1  0
  4  9  2  0
  4 10  1  0
  6 14  1  0
  6  8  2  0
  5 12  1  0
  5 10  2  0
  6 15  1  0
 13 16  1  0
 16 17  1  0
 17 18  2  0
 16 19  2  0
 18 20  1  0
 18 21  1  0
 21 22  1  0
 20 23  2  0
 19 24  1  0
 21 24  2  0
 22 25  1  0
 15 26  1  0
 20 27  1  0
 25 27  1  0
 15 28  1  0
 25 29  2  0
M  END
$$$$
