
     RDKit          3D

 29 33  0  0  0  0  0  0  0  0999 V2000
  -28.1100  -21.1250  -11.7830 C   0  0  0  0  0  0  0  0  0  0  0  0
  -29.1380  -20.1340   -9.8150 C   0  0  0  0  0  0  0  0  0  0  0  0
  -26.8640  -19.6120  -10.1060 C   0  0  0  0  0  0  0  0  0  0  0  0
  -26.3470  -18.1740   -8.1970 C   0  0  0  0  0  0  0  0  0  0  0  0
  -24.6510  -18.7420   -9.8540 C   0  0  0  0  0  0  0  0  0  0  0  0
  -30.4600  -21.5050  -11.2460 C   0  0  0  0  0  0  0  0  0  0  0  0
  -28.0100  -20.3360  -10.6490 C   0  0  0  0  0  0  0  0  0  0  0  0
  -29.3460  -21.7100  -12.0780 C   0  0  0  0  0  0  0  0  0  0  0  0
  -27.2470  -18.9400   -8.9190 C   0  0  0  0  0  0  0  0  0  0  0  0
  -25.0380  -18.0800   -8.6770 C   0  0  0  0  0  0  0  0  0  0  0  0
  -28.6770  -19.2570   -8.7170 C   0  0  0  0  0  0  0  0  0  0  0  0
  -25.5650  -19.5150  -10.5780 C   0  0  0  0  0  0  0  0  0  0  0  0
  -29.5470  -18.7540   -7.5500 C   0  0  0  0  0  0  0  0  0  0  0  0
  -30.3630  -20.7110  -10.1010 C   0  0  0  0  0  0  0  0  0  0  0  0
  -30.2682  -17.6131   -7.7884 C   0  0  0  0  0  0  0  0  0  0  0  0
  -31.0512  -17.2267   -6.5999 C   0  0  0  0  0  0  0  0  0  0  0  0
  -32.1941  -16.7694   -6.5333 C   0  0  0  0  0  0  0  0  0  0  0  0
  -30.4316  -17.4800   -5.2841 C   0  0  0  0  0  0  0  0  0  0  0  0
  -31.8829  -22.2506  -11.5300 C   0  0  0  0  0  0  0  0  0  0  0  0
  -32.8883  -16.4134   -5.3770 C   0  0  0  0  0  0  0  0  0  0  0  0
  -34.2529  -15.9154   -5.4308 O   0  0  0  0  0  0  0  0  0  0  0  0
  -32.4013  -16.8278   -4.1472 C   0  0  0  0  0  0  0  0  0  0  0  0
  -35.0367  -16.1206   -4.3782 C   0  0  0  0  0  0  0  0  0  0  0  0
  -33.1075  -16.7414   -2.8905 C   0  0  0  0  0  0  0  0  0  0  0  0
  -34.4946  -16.3594   -3.0386 C   0  0  0  0  0  0  0  0  0  0  0  0
  -32.7277  -17.0297   -1.7331 O   0  0  0  0  0  0  0  0  0  0  0  0
  -31.7577  -23.4939  -11.9138 O   0  0  0  0  0  0  0  0  0  0  0  0
  -32.9578  -21.6347  -11.4149 O   0  0  0  0  0  0  0  0  0  0  0  0
  -31.1354  -17.4263   -4.1545 C   0  0  0  0  0  0  0  0  0  0  0  0
  2  7  1  0
  2 11  1  0
  2 14  2  0
  3  7  1  0
  3  9  1  0
  3 12  2  0
  9 11  1  0
 11 13  2  3
  1  7  2  0
  1  8  1  0
  4  9  2  0
  4 10  1  0
  6 14  1  0
  6  8  2  0
  5 12  1  0
  5 10  2  0
 13 15  1  0
 15 16  1  0
 16 17  2  0
 16 18  1  0
  6 19  1  0
 17 20  1  0
 20 21  1  0
 20 22  2  0
 21 23  1  0
 22 24  1  0
 23 25  2  0
 24 25  1  0
 24 26  2  0
 19 27  2  0
 19 28  1  0
 18 29  2  0
 22 29  1  0
M  END
$$$$
