
     RDKit          3D

 30 34  0  0  0  0  0  0  0  0999 V2000
  -28.1100  -21.1250  -11.7830 C   0  0  0  0  0  0  0  0  0  0  0  0
  -29.1380  -20.1340   -9.8150 C   0  0  0  0  0  0  0  0  0  0  0  0
  -26.8640  -19.6120  -10.1060 C   0  0  0  0  0  0  0  0  0  0  0  0
  -26.3470  -18.1740   -8.1970 C   0  0  0  0  0  0  0  0  0  0  0  0
  -24.6510  -18.7420   -9.8540 C   0  0  0  0  0  0  0  0  0  0  0  0
  -30.4600  -21.5050  -11.2460 C   0  0  0  0  0  0  0  0  0  0  0  0
  -28.0100  -20.3360  -10.6490 C   0  0  0  0  0  0  0  0  0  0  0  0
  -29.3460  -21.7100  -12.0780 C   0  0  0  0  0  0  0  0  0  0  0  0
  -27.2470  -18.9400   -8.9190 C   0  0  0  0  0  0  0  0  0  0  0  0
  -25.0380  -18.0800   -8.6770 C   0  0  0  0  0  0  0  0  0  0  0  0
  -28.6770  -19.2570   -8.7170 C   0  0  0  0  0  0  0  0  0  0  0  0
  -25.5650  -19.5150  -10.5780 C   0  0  0  0  0  0  0  0  0  0  0  0
  -29.5470  -18.7540   -7.5500 C   0  0  0  0  0  0  0  0  0  0  0  0
  -30.3630  -20.7110  -10.1010 C   0  0  0  0  0  0  0  0  0  0  0  0
  -30.2682  -17.6131   -7.7884 C   0  0  0  0  0  0  0  0  0  0  0  0
  -31.8870  -22.2541  -11.5313 C   0  0  0  0  0  0  0  0  0  0  0  0
  -32.7254  -21.5357  -12.0641 N   0  0  0  0  0  0  0  0  0  0  0  0
  -31.0736  -17.2543   -6.6113 C   0  0  0  0  0  0  0  0  0  0  0  0
  -30.7236  -17.8863   -5.4155 C   0  0  0  0  0  0  0  0  0  0  0  0
  -31.7509  -23.2330  -12.6227 C   0  0  0  0  0  0  0  0  0  0  0  0
  -32.5892  -17.6053   -6.8422 O   0  0  0  0  0  0  0  0  0  0  0  0
  -33.4464  -17.5234   -5.7929 C   0  0  0  0  0  0  0  0  0  0  0  0
  -29.5514  -17.3986   -4.8823 O   0  0  0  0  0  0  0  0  0  0  0  0
  -31.8602  -17.9094   -4.3872 C   0  0  0  0  0  0  0  0  0  0  0  0
  -32.8443  -22.7490  -13.3424 C   0  0  0  0  0  0  0  0  0  0  0  0
  -34.7455  -17.6310   -6.4432 O   0  0  0  0  0  0  0  0  0  0  0  0
  -33.2606  -21.5592  -13.0646 C   0  0  0  0  0  0  0  0  0  0  0  0
  -33.1463  -18.2147   -4.7123 C   0  0  0  0  0  0  0  0  0  0  0  0
  -33.2177  -19.6337   -5.0973 O   0  0  0  0  0  0  0  0  0  0  0  0
  -31.3939  -18.6953   -3.1557 O   0  0  0  0  0  0  0  0  0  0  0  0
  2  7  1  0
  2 11  1  0
  2 14  2  0
  3  7  1  0
  3  9  1  0
  3 12  2  0
  9 11  1  0
 11 13  2  3
  1  7  2  0
  1  8  1  0
  4  9  2  0
  4 10  1  0
  6 14  1  0
  6  8  2  0
  5 12  1  0
  5 10  2  0
 13 15  1  0
  6 16  1  0
 16 17  1  0
 15 18  1  0
 18 19  1  0
 16 20  1  0
 18 21  1  0
 21 22  1  0
 19 23  1  0
 19 24  1  0
 20 25  1  0
 22 26  1  0
 17 27  1  0
 25 27  1  0
 22 28  1  0
 24 28  1  0
 28 29  1  0
 24 30  1  0
M  END
$$$$
