
     RDKit          3D

 31 34  0  0  0  0  0  0  0  0999 V2000
  -28.1100  -21.1250  -11.7830 C   0  0  0  0  0  0  0  0  0  0  0  0
  -29.1380  -20.1340   -9.8150 C   0  0  0  0  0  0  0  0  0  0  0  0
  -26.8640  -19.6120  -10.1060 C   0  0  0  0  0  0  0  0  0  0  0  0
  -26.3470  -18.1740   -8.1970 C   0  0  0  0  0  0  0  0  0  0  0  0
  -24.6510  -18.7420   -9.8540 C   0  0  0  0  0  0  0  0  0  0  0  0
  -30.4600  -21.5050  -11.2460 C   0  0  0  0  0  0  0  0  0  0  0  0
  -28.0100  -20.3360  -10.6490 C   0  0  0  0  0  0  0  0  0  0  0  0
  -29.3460  -21.7100  -12.0780 C   0  0  0  0  0  0  0  0  0  0  0  0
  -27.2470  -18.9400   -8.9190 C   0  0  0  0  0  0  0  0  0  0  0  0
  -25.0380  -18.0800   -8.6770 C   0  0  0  0  0  0  0  0  0  0  0  0
  -28.6770  -19.2570   -8.7170 C   0  0  0  0  0  0  0  0  0  0  0  0
  -25.5650  -19.5150  -10.5780 C   0  0  0  0  0  0  0  0  0  0  0  0
  -29.5470  -18.7540   -7.5500 C   0  0  0  0  0  0  0  0  0  0  0  0
  -30.3630  -20.7110  -10.1010 C   0  0  0  0  0  0  0  0  0  0  0  0
  -30.2682  -17.6131   -7.7884 C   0  0  0  0  0  0  0  0  0  0  0  0
  -31.8870  -22.2541  -11.5313 C   0  0  0  0  0  0  0  0  0  0  0  0
  -32.7254  -21.5357  -12.0641 N   0  0  0  0  0  0  0  0  0  0  0  0
  -31.0736  -17.2543   -6.6113 C   0  0  0  0  0  0  0  0  0  0  0  0
  -32.2159  -16.5872   -6.7105 C   0  0  0  0  0  0  0  0  0  0  0  0
  -33.1818  -16.4839   -5.6345 C   0  0  0  0  0  0  0  0  0  0  0  0
  -34.1735  -15.6607   -5.7846 O   0  0  0  0  0  0  0  0  0  0  0  0
  -33.0426  -17.2658   -4.5272 C   0  0  0  0  0  0  0  0  0  0  0  0
  -34.3694  -14.9819   -6.9358 C   0  0  0  0  0  0  0  0  0  0  0  0
  -32.1500  -18.2027   -4.3492 C   0  0  0  0  0  0  0  0  0  0  0  0
  -32.0262  -19.1495   -3.3252 C   0  0  0  0  0  0  0  0  0  0  0  0
  -31.8041  -18.8311   -2.1548 O   0  0  0  0  0  0  0  0  0  0  0  0
  -32.5527  -20.9533  -13.2917 C   0  0  0  0  0  0  0  0  0  0  0  0
  -31.8343  -21.4164  -14.2169 O   0  0  0  0  0  0  0  0  0  0  0  0
  -32.6604  -20.3936   -3.4285 N   0  0  0  0  0  0  0  0  0  0  0  0
  -33.2368  -19.6739  -13.7271 C   0  0  0  0  0  0  0  0  0  0  0  0
  -31.1867  -18.4139   -5.5569 C   0  0  0  0  0  0  0  0  0  0  0  0
  2  7  1  0
  2 11  1  0
  2 14  2  0
  3  7  1  0
  3  9  1  0
  3 12  2  0
  9 11  1  0
 11 13  2  3
  1  7  2  0
  1  8  1  0
  4  9  2  0
  4 10  1  0
  6 14  1  0
  6  8  2  0
  5 12  1  0
  5 10  2  0
 13 15  1  0
  6 16  1  0
 16 17  1  0
 15 18  1  0
 18 19  2  0
 19 20  1  0
 20 21  1  0
 20 22  2  0
 21 23  1  0
 22 24  1  0
 24 25  1  0
 25 26  2  0
 17 27  1  0
 27 28  2  0
 25 29  1  0
 27 30  1  0
 18 31  1  0
 24 31  2  0
M  END
$$$$
