
     RDKit          3D

 31 35  0  0  0  0  0  0  0  0999 V2000
  -28.1100  -21.1250  -11.7830 C   0  0  0  0  0  0  0  0  0  0  0  0
  -29.1380  -20.1340   -9.8150 C   0  0  0  0  0  0  0  0  0  0  0  0
  -26.8640  -19.6120  -10.1060 C   0  0  0  0  0  0  0  0  0  0  0  0
  -26.3470  -18.1740   -8.1970 C   0  0  0  0  0  0  0  0  0  0  0  0
  -24.6510  -18.7420   -9.8540 C   0  0  0  0  0  0  0  0  0  0  0  0
  -30.4600  -21.5050  -11.2460 C   0  0  0  0  0  0  0  0  0  0  0  0
  -28.0100  -20.3360  -10.6490 C   0  0  0  0  0  0  0  0  0  0  0  0
  -29.3460  -21.7100  -12.0780 C   0  0  0  0  0  0  0  0  0  0  0  0
  -27.2470  -18.9400   -8.9190 C   0  0  0  0  0  0  0  0  0  0  0  0
  -25.0380  -18.0800   -8.6770 C   0  0  0  0  0  0  0  0  0  0  0  0
  -28.6770  -19.2570   -8.7170 C   0  0  0  0  0  0  0  0  0  0  0  0
  -25.5650  -19.5150  -10.5780 C   0  0  0  0  0  0  0  0  0  0  0  0
  -29.5470  -18.7540   -7.5500 C   0  0  0  0  0  0  0  0  0  0  0  0
  -30.3630  -20.7110  -10.1010 C   0  0  0  0  0  0  0  0  0  0  0  0
  -30.2682  -17.6131   -7.7884 C   0  0  0  0  0  0  0  0  0  0  0  0
  -31.0512  -17.2267   -6.5999 C   0  0  0  0  0  0  0  0  0  0  0  0
  -32.1941  -16.7694   -6.5333 C   0  0  0  0  0  0  0  0  0  0  0  0
  -31.8813  -22.2475  -11.5293 C   0  0  0  0  0  0  0  0  0  0  0  0
  -30.3477  -17.1101   -5.2995 C   0  0  0  0  0  0  0  0  0  0  0  0
  -30.9878  -16.9836   -4.1029 C   0  0  0  0  0  0  0  0  0  0  0  0
  -32.9467  -16.5430   -5.3923 C   0  0  0  0  0  0  0  0  0  0  0  0
  -30.3961  -17.1251   -2.8769 O   0  0  0  0  0  0  0  0  0  0  0  0
  -32.7414  -21.5168  -12.0288 N   0  0  0  0  0  0  0  0  0  0  0  0
  -31.7511  -23.2113  -12.6422 C   0  0  0  0  0  0  0  0  0  0  0  0
  -34.3933  -16.1774   -5.4924 C   0  0  0  0  0  0  0  0  0  0  0  0
  -32.8587  -22.7279  -13.3780 C   0  0  0  0  0  0  0  0  0  0  0  0
  -33.3132  -21.5652  -13.0392 N   0  0  0  0  0  0  0  0  0  0  0  0
  -34.8113  -15.0857   -4.9832 O   0  0  0  0  0  0  0  0  0  0  0  0
  -35.2671  -16.7738   -6.3468 O   0  0  0  0  0  0  0  0  0  0  0  0
  -32.4349  -16.7080   -4.1350 C   0  0  0  0  0  0  0  0  0  0  0  0
  -34.2453  -20.6665  -13.6568 C   0  0  0  0  0  0  0  0  0  0  0  0
  2  7  1  0
  2 11  1  0
  2 14  2  0
  3  7  1  0
  3  9  1  0
  3 12  2  0
  9 11  1  0
 11 13  2  3
  1  7  2  0
  1  8  1  0
  4  9  2  0
  4 10  1  0
  6 14  1  0
  6  8  2  0
  5 12  1  0
  5 10  2  0
 13 15  1  0
 15 16  1  0
 16 17  2  0
  6 18  1  0
 16 19  1  0
 19 20  2  0
 17 21  1  0
 20 22  1  0
 18 23  1  0
 18 24  1  0
 21 25  1  0
 24 26  1  0
 23 27  1  0
 26 27  1  0
 25 28  1  0
 25 29  2  0
 20 30  1  0
 21 30  2  0
 27 31  1  0
M  END
$$$$
