
     RDKit          3D

 32 36  0  0  0  0  0  0  0  0999 V2000
  -28.1100  -21.1250  -11.7830 C   0  0  0  0  0  0  0  0  0  0  0  0
  -29.1380  -20.1340   -9.8150 C   0  0  0  0  0  0  0  0  0  0  0  0
  -26.8640  -19.6120  -10.1060 C   0  0  0  0  0  0  0  0  0  0  0  0
  -26.3470  -18.1740   -8.1970 C   0  0  0  0  0  0  0  0  0  0  0  0
  -24.6510  -18.7420   -9.8540 C   0  0  0  0  0  0  0  0  0  0  0  0
  -30.4600  -21.5050  -11.2460 C   0  0  0  0  0  0  0  0  0  0  0  0
  -28.0100  -20.3360  -10.6490 C   0  0  0  0  0  0  0  0  0  0  0  0
  -29.3460  -21.7100  -12.0780 C   0  0  0  0  0  0  0  0  0  0  0  0
  -27.2470  -18.9400   -8.9190 C   0  0  0  0  0  0  0  0  0  0  0  0
  -25.0380  -18.0800   -8.6770 C   0  0  0  0  0  0  0  0  0  0  0  0
  -28.6770  -19.2570   -8.7170 C   0  0  0  0  0  0  0  0  0  0  0  0
  -25.5650  -19.5150  -10.5780 C   0  0  0  0  0  0  0  0  0  0  0  0
  -29.5470  -18.7540   -7.5500 C   0  0  0  0  0  0  0  0  0  0  0  0
  -30.3630  -20.7110  -10.1010 C   0  0  0  0  0  0  0  0  0  0  0  0
  -30.2682  -17.6131   -7.7884 C   0  0  0  0  0  0  0  0  0  0  0  0
  -31.0512  -17.2267   -6.5999 C   0  0  0  0  0  0  0  0  0  0  0  0
  -30.7450  -17.6313   -5.4512 C   0  0  0  0  0  0  0  0  0  0  0  0
  -31.8820  -22.2510  -11.5274 C   0  0  0  0  0  0  0  0  0  0  0  0
  -32.1652  -16.3316   -6.7029 C   0  0  0  0  0  0  0  0  0  0  0  0
  -32.6437  -15.8118   -7.9915 C   0  0  0  0  0  0  0  0  0  0  0  0
  -31.7576  -23.4945  -11.9074 O   0  0  0  0  0  0  0  0  0  0  0  0
  -32.6261  -15.7378   -5.5047 C   0  0  0  0  0  0  0  0  0  0  0  0
  -32.3216  -16.2610   -4.2948 C   0  0  0  0  0  0  0  0  0  0  0  0
  -31.3325  -17.3893   -4.2359 C   0  0  0  0  0  0  0  0  0  0  0  0
  -32.8930  -21.5904  -11.8701 O   0  0  0  0  0  0  0  0  0  0  0  0
  -30.9851  -17.8841   -2.9453 C   0  0  0  0  0  0  0  0  0  0  0  0
  -31.8334  -18.9530   -2.4650 C   0  0  0  0  0  0  0  0  0  0  0  0
  -32.1412  -18.9276   -1.3661 O   0  0  0  0  0  0  0  0  0  0  0  0
  -32.2497  -20.0151   -3.2564 N   0  0  0  0  0  0  0  0  0  0  0  0
  -33.6052  -15.1594   -8.1449 O   0  0  0  0  0  0  0  0  0  0  0  0
  -31.9256  -16.1953   -9.1222 N   0  0  0  0  0  0  0  0  0  0  0  0
  -30.7223  -17.1004   -9.0656 C   0  0  0  0  0  0  0  0  0  0  0  0
  2  7  1  0
  2 11  1  0
  2 14  2  0
  3  7  1  0
  3  9  1  0
  3 12  2  0
  9 11  1  0
 11 13  2  3
  1  7  2  0
  1  8  1  0
  4  9  2  0
  4 10  1  0
  6 14  1  0
  6  8  2  0
  5 12  1  0
  5 10  2  0
 13 15  1  0
 15 16  1  0
 16 17  1  0
  6 18  1  0
 16 19  2  0
 19 20  1  0
 18 21  1  0
 19 22  1  0
 22 23  2  0
 17 24  2  0
 23 24  1  0
 18 25  2  0
 24 26  1  0
 26 27  1  0
 27 28  2  0
 27 29  1  0
 20 30  2  0
 20 31  1  0
 15 32  2  0
 31 32  1  0
M  END
$$$$
