
     RDKit          3D

 33 37  0  0  0  0  0  0  0  0999 V2000
  -28.1100  -21.1250  -11.7830 C   0  0  0  0  0  0  0  0  0  0  0  0
  -29.1380  -20.1340   -9.8150 C   0  0  0  0  0  0  0  0  0  0  0  0
  -26.8640  -19.6120  -10.1060 C   0  0  0  0  0  0  0  0  0  0  0  0
  -26.3470  -18.1740   -8.1970 C   0  0  0  0  0  0  0  0  0  0  0  0
  -24.6510  -18.7420   -9.8540 C   0  0  0  0  0  0  0  0  0  0  0  0
  -30.4600  -21.5050  -11.2460 C   0  0  0  0  0  0  0  0  0  0  0  0
  -28.0100  -20.3360  -10.6490 C   0  0  0  0  0  0  0  0  0  0  0  0
  -29.3460  -21.7100  -12.0780 C   0  0  0  0  0  0  0  0  0  0  0  0
  -27.2470  -18.9400   -8.9190 C   0  0  0  0  0  0  0  0  0  0  0  0
  -25.0380  -18.0800   -8.6770 C   0  0  0  0  0  0  0  0  0  0  0  0
  -28.6770  -19.2570   -8.7170 C   0  0  0  0  0  0  0  0  0  0  0  0
  -25.5650  -19.5150  -10.5780 C   0  0  0  0  0  0  0  0  0  0  0  0
  -29.5470  -18.7540   -7.5500 C   0  0  0  0  0  0  0  0  0  0  0  0
  -30.3630  -20.7110  -10.1010 C   0  0  0  0  0  0  0  0  0  0  0  0
  -31.6372  -22.1895  -11.6585 N   0  0  0  0  0  0  0  0  0  0  0  0
  -30.2571  -17.6003   -7.7868 C   0  0  0  0  0  0  0  0  0  0  0  0
  -31.0594  -17.2358   -6.6100 C   0  0  0  0  0  0  0  0  0  0  0  0
  -32.1858  -16.7350   -6.5482 C   0  0  0  0  0  0  0  0  0  0  0  0
  -30.4666  -16.8425   -8.5780 C   0  0  0  0  0  0  0  0  0  0  0  0
  -30.7509  -17.8768   -5.2076 C   0  0  0  0  0  0  0  0  0  0  0  0
  -31.5475  -15.9306   -8.6576 C   0  0  0  0  0  0  0  0  0  0  0  0
  -31.6609  -23.1357  -12.5757 C   0  0  0  0  0  0  0  0  0  0  0  0
  -32.2772  -22.5757  -13.7724 C   0  0  0  0  0  0  0  0  0  0  0  0
  -31.8015  -18.1898   -4.3531 C   0  0  0  0  0  0  0  0  0  0  0  0
  -31.8993  -19.4733   -3.7888 C   0  0  0  0  0  0  0  0  0  0  0  0
  -32.9104  -21.6266  -11.3353 C   0  0  0  0  0  0  0  0  0  0  0  0
  -33.1242  -20.1662   -3.5435 C   0  0  0  0  0  0  0  0  0  0  0  0
  -34.0883  -19.6273   -3.9626 O   0  0  0  0  0  0  0  0  0  0  0  0
  -33.0318  -21.1545   -2.9348 O   0  0  0  0  0  0  0  0  0  0  0  0
  -33.5781  -21.9633  -13.5175 C   0  0  0  0  0  0  0  0  0  0  0  0
  -33.1183  -16.5545   -5.5189 F   0  0  0  0  0  0  0  0  0  0  0  0
  -32.4388  -15.8252   -7.6884 C   0  0  0  0  0  0  0  0  0  0  0  0
  -33.7274  -21.3963  -12.4217 C   0  0  0  0  0  0  0  0  0  0  0  0
  2  7  1  0
  2 11  1  0
  2 14  2  0
  3  7  1  0
  3  9  1  0
  3 12  2  0
  9 11  1  0
 11 13  2  3
  1  7  2  0
  1  8  1  0
  4  9  2  0
  4 10  1  0
  6 14  1  0
  6  8  2  0
  5 12  1  0
  5 10  2  0
  6 15  1  0
 13 16  1  0
 16 17  1  0
 17 18  2  0
 16 19  2  0
 17 20  1  0
 19 21  1  0
 15 22  1  0
 22 23  1  0
 20 24  1  0
 24 25  1  0
 15 26  1  0
 25 27  1  0
 27 28  2  0
 27 29  1  0
 23 30  1  0
 18 31  1  0
 18 32  1  0
 21 32  2  0
 26 33  1  0
 30 33  1  0
M  END
$$$$
