
     RDKit          3D

 34 38  0  0  0  0  0  0  0  0999 V2000
  -28.1100  -21.1250  -11.7830 C   0  0  0  0  0  0  0  0  0  0  0  0
  -29.1380  -20.1340   -9.8150 C   0  0  0  0  0  0  0  0  0  0  0  0
  -26.8640  -19.6120  -10.1060 C   0  0  0  0  0  0  0  0  0  0  0  0
  -26.3470  -18.1740   -8.1970 C   0  0  0  0  0  0  0  0  0  0  0  0
  -24.6510  -18.7420   -9.8540 C   0  0  0  0  0  0  0  0  0  0  0  0
  -30.4600  -21.5050  -11.2460 C   0  0  0  0  0  0  0  0  0  0  0  0
  -28.0100  -20.3360  -10.6490 C   0  0  0  0  0  0  0  0  0  0  0  0
  -29.3460  -21.7100  -12.0780 C   0  0  0  0  0  0  0  0  0  0  0  0
  -27.2470  -18.9400   -8.9190 C   0  0  0  0  0  0  0  0  0  0  0  0
  -25.0380  -18.0800   -8.6770 C   0  0  0  0  0  0  0  0  0  0  0  0
  -28.6770  -19.2570   -8.7170 C   0  0  0  0  0  0  0  0  0  0  0  0
  -25.5650  -19.5150  -10.5780 C   0  0  0  0  0  0  0  0  0  0  0  0
  -29.5470  -18.7540   -7.5500 C   0  0  0  0  0  0  0  0  0  0  0  0
  -30.3630  -20.7110  -10.1010 C   0  0  0  0  0  0  0  0  0  0  0  0
  -30.2682  -17.6131   -7.7884 C   0  0  0  0  0  0  0  0  0  0  0  0
  -31.8870  -22.2541  -11.5313 C   0  0  0  0  0  0  0  0  0  0  0  0
  -31.0748  -17.2494   -6.6123 C   0  0  0  0  0  0  0  0  0  0  0  0
  -32.7363  -21.5240  -12.0456 N   0  0  0  0  0  0  0  0  0  0  0  0
  -32.2123  -16.5880   -6.7015 C   0  0  0  0  0  0  0  0  0  0  0  0
  -30.4388  -16.8913   -8.9113 C   0  0  0  0  0  0  0  0  0  0  0  0
  -30.8655  -17.8672   -5.3205 C   0  0  0  0  0  0  0  0  0  0  0  0
  -33.2233  -16.3508   -5.7356 C   0  0  0  0  0  0  0  0  0  0  0  0
  -34.3840  -15.6550   -5.9943 O   0  0  0  0  0  0  0  0  0  0  0  0
  -31.7328  -17.7891   -4.2474 C   0  0  0  0  0  0  0  0  0  0  0  0
  -31.6153  -18.4750   -3.0538 C   0  0  0  0  0  0  0  0  0  0  0  0
  -30.8026  -17.9969   -2.1260 O   0  0  0  0  0  0  0  0  0  0  0  0
  -31.5288  -15.9400   -9.0167 C   0  0  0  0  0  0  0  0  0  0  0  0
  -32.2894  -19.6579   -2.7888 C   0  0  0  0  0  0  0  0  0  0  0  0
  -31.9740  -23.5070  -11.4686 O   0  0  0  0  0  0  0  0  0  0  0  0
  -32.5991  -20.6275   -3.6921 O   0  0  0  0  0  0  0  0  0  0  0  0
  -33.0517  -16.9928   -4.5530 C   0  0  0  0  0  0  0  0  0  0  0  0
  -35.4585  -15.6435   -5.1599 C   0  0  0  0  0  0  0  0  0  0  0  0
  -32.3627  -15.7780   -7.9944 C   0  0  0  0  0  0  0  0  0  0  0  0
  -32.8709  -19.9930   -1.6509 N   0  0  0  0  0  0  0  0  0  0  0  0
  2  7  1  0
  2 11  1  0
  2 14  2  0
  3  7  1  0
  3  9  1  0
  3 12  2  0
  9 11  1  0
 11 13  2  3
  1  7  2  0
  1  8  1  0
  4  9  2  0
  4 10  1  0
  6 14  1  0
  6  8  2  0
  5 12  1  0
  5 10  2  0
 13 15  1  0
  6 16  1  0
 15 17  1  0
 16 18  1  0
 17 19  2  0
 15 20  2  0
 17 21  1  0
 19 22  1  0
 22 23  1  0
 21 24  2  0
 24 25  1  0
 25 26  2  0
 20 27  1  0
 25 28  1  0
 16 29  2  0
 28 30  2  0
 22 31  2  0
 24 31  1  0
 23 32  1  0
 19 33  1  0
 27 33  2  0
 28 34  1  0
M  END
$$$$
