
     RDKit          3D

 34 40  0  0  0  0  0  0  0  0999 V2000
  -28.1100  -21.1250  -11.7830 C   0  0  0  0  0  0  0  0  0  0  0  0
  -29.1380  -20.1340   -9.8150 C   0  0  0  0  0  0  0  0  0  0  0  0
  -26.8640  -19.6120  -10.1060 C   0  0  0  0  0  0  0  0  0  0  0  0
  -26.3470  -18.1740   -8.1970 C   0  0  0  0  0  0  0  0  0  0  0  0
  -24.6510  -18.7420   -9.8540 C   0  0  0  0  0  0  0  0  0  0  0  0
  -30.4600  -21.5050  -11.2460 C   0  0  0  0  0  0  0  0  0  0  0  0
  -28.0100  -20.3360  -10.6490 C   0  0  0  0  0  0  0  0  0  0  0  0
  -29.3460  -21.7100  -12.0780 C   0  0  0  0  0  0  0  0  0  0  0  0
  -27.2470  -18.9400   -8.9190 C   0  0  0  0  0  0  0  0  0  0  0  0
  -25.0380  -18.0800   -8.6770 C   0  0  0  0  0  0  0  0  0  0  0  0
  -28.6770  -19.2570   -8.7170 C   0  0  0  0  0  0  0  0  0  0  0  0
  -25.5650  -19.5150  -10.5780 C   0  0  0  0  0  0  0  0  0  0  0  0
  -29.5470  -18.7540   -7.5500 C   0  0  0  0  0  0  0  0  0  0  0  0
  -30.3630  -20.7110  -10.1010 C   0  0  0  0  0  0  0  0  0  0  0  0
  -30.2682  -17.6131   -7.7884 C   0  0  0  0  0  0  0  0  0  0  0  0
  -31.0512  -17.2267   -6.5999 C   0  0  0  0  0  0  0  0  0  0  0  0
  -30.7450  -17.6313   -5.4512 C   0  0  0  0  0  0  0  0  0  0  0  0
  -31.8820  -22.2510  -11.5274 C   0  0  0  0  0  0  0  0  0  0  0  0
  -31.4242  -15.7458   -6.5094 C   0  0  0  0  0  0  0  0  0  0  0  0
  -31.8288  -17.6863   -4.3624 C   0  0  0  0  0  0  0  0  0  0  0  0
  -31.7779  -16.6005   -3.6423 C   0  0  0  0  0  0  0  0  0  0  0  0
  -32.8184  -15.4996   -3.9541 C   0  0  0  0  0  0  0  0  0  0  0  0
  -31.7519  -23.4919  -11.9242 O   0  0  0  0  0  0  0  0  0  0  0  0
  -33.1651  -17.8466   -5.0868 C   0  0  0  0  0  0  0  0  0  0  0  0
  -34.3155  -17.9852   -4.3406 C   0  0  0  0  0  0  0  0  0  0  0  0
  -35.2298  -18.8215   -4.7793 O   0  0  0  0  0  0  0  0  0  0  0  0
  -31.6372  -18.9964   -3.5598 C   0  0  0  0  0  0  0  0  0  0  0  0
  -33.1820  -16.5601   -6.0510 C   0  0  0  0  0  0  0  0  0  0  0  0
  -32.9330  -19.7683   -3.2906 C   0  0  0  0  0  0  0  0  0  0  0  0
  -33.3835  -15.4395   -5.2116 C   0  0  0  0  0  0  0  0  0  0  0  0
  -34.8199  -16.9239   -3.6666 C   0  0  0  0  0  0  0  0  0  0  0  0
  -32.7753  -22.0961  -10.4517 O   0  0  0  0  0  0  0  0  0  0  0  0
  -34.4188  -15.5067   -3.8948 C   0  0  0  0  0  0  0  0  0  0  0  0
  -32.6877  -21.1340   -3.1351 O   0  0  0  0  0  0  0  0  0  0  0  0
  2  7  1  0
  2 11  1  0
  2 14  2  0
  3  7  1  0
  3  9  1  0
  3 12  2  0
  9 11  1  0
 11 13  2  3
  1  7  2  0
  1  8  1  0
  4  9  2  0
  4 10  1  0
  6 14  1  0
  6  8  2  0
  5 12  1  0
  5 10  2  0
 13 15  1  0
 15 16  1  0
 16 17  1  0
  6 18  1  0
 16 19  1  0
 17 20  1  0
 20 21  1  0
 21 22  1  0
 18 23  1  0
 20 24  1  0
 24 25  1  0
 25 26  2  0
 20 27  1  0
 19 28  1  0
 24 28  1  0
 27 29  1  0
 22 30  1  0
 28 30  1  0
 25 31  1  0
 18 32  1  0
 22 33  1  0
 30 33  1  0
 31 33  1  0
 29 34  1  0
M  END
$$$$
