
     RDKit          3D

 34 38  0  0  0  0  0  0  0  0999 V2000
  -28.1100  -21.1250  -11.7830 C   0  0  0  0  0  0  0  0  0  0  0  0
  -29.1380  -20.1340   -9.8150 C   0  0  0  0  0  0  0  0  0  0  0  0
  -26.8640  -19.6120  -10.1060 C   0  0  0  0  0  0  0  0  0  0  0  0
  -26.3470  -18.1740   -8.1970 C   0  0  0  0  0  0  0  0  0  0  0  0
  -24.6510  -18.7420   -9.8540 C   0  0  0  0  0  0  0  0  0  0  0  0
  -30.4600  -21.5050  -11.2460 C   0  0  0  0  0  0  0  0  0  0  0  0
  -28.0100  -20.3360  -10.6490 C   0  0  0  0  0  0  0  0  0  0  0  0
  -29.3460  -21.7100  -12.0780 C   0  0  0  0  0  0  0  0  0  0  0  0
  -27.2470  -18.9400   -8.9190 C   0  0  0  0  0  0  0  0  0  0  0  0
  -25.0380  -18.0800   -8.6770 C   0  0  0  0  0  0  0  0  0  0  0  0
  -28.6770  -19.2570   -8.7170 C   0  0  0  0  0  0  0  0  0  0  0  0
  -25.5650  -19.5150  -10.5780 C   0  0  0  0  0  0  0  0  0  0  0  0
  -29.5470  -18.7540   -7.5500 C   0  0  0  0  0  0  0  0  0  0  0  0
  -30.3630  -20.7110  -10.1010 C   0  0  0  0  0  0  0  0  0  0  0  0
  -31.6372  -22.1895  -11.6585 N   0  0  0  0  0  0  0  0  0  0  0  0
  -30.2571  -17.6003   -7.7868 C   0  0  0  0  0  0  0  0  0  0  0  0
  -31.0594  -17.2358   -6.6100 C   0  0  0  0  0  0  0  0  0  0  0  0
  -32.1858  -16.7350   -6.5482 C   0  0  0  0  0  0  0  0  0  0  0  0
  -30.4666  -16.8425   -8.5780 C   0  0  0  0  0  0  0  0  0  0  0  0
  -30.7509  -17.8768   -5.2076 C   0  0  0  0  0  0  0  0  0  0  0  0
  -31.5475  -15.9306   -8.6576 C   0  0  0  0  0  0  0  0  0  0  0  0
  -31.6609  -23.1357  -12.5757 C   0  0  0  0  0  0  0  0  0  0  0  0
  -31.8021  -18.1892   -4.3528 C   0  0  0  0  0  0  0  0  0  0  0  0
  -32.2526  -22.5704  -13.7818 C   0  0  0  0  0  0  0  0  0  0  0  0
  -32.8281  -21.3926  -11.9325 C   0  0  0  0  0  0  0  0  0  0  0  0
  -31.8952  -19.4660   -3.7783 C   0  0  0  0  0  0  0  0  0  0  0  0
  -33.0862  -19.9858   -3.2533 C   0  0  0  0  0  0  0  0  0  0  0  0
  -33.1083  -21.5235  -13.2137 C   0  0  0  0  0  0  0  0  0  0  0  0
  -33.0724  -21.2242   -3.2150 O   0  0  0  0  0  0  0  0  0  0  0  0
  -33.9806  -19.2476   -2.8367 O   0  0  0  0  0  0  0  0  0  0  0  0
  -32.9445  -20.1787  -13.9227 C   0  0  0  0  0  0  0  0  0  0  0  0
  -33.5019  -19.0973  -13.3430 O   0  0  0  0  0  0  0  0  0  0  0  0
  -32.4197  -15.8470   -7.7096 C   0  0  0  0  0  0  0  0  0  0  0  0
  -32.1481  -20.0232  -14.9211 O   0  0  0  0  0  0  0  0  0  0  0  0
  2  7  1  0
  2 11  1  0
  2 14  2  0
  3  7  1  0
  3  9  1  0
  3 12  2  0
  9 11  1  0
 11 13  2  3
  1  7  2  0
  1  8  1  0
  4  9  2  0
  4 10  1  0
  6 14  1  0
  6  8  2  0
  5 12  1  0
  5 10  2  0
  6 15  1  0
 13 16  1  0
 16 17  1  0
 17 18  2  0
 16 19  2  0
 17 20  1  0
 19 21  1  0
 15 22  1  0
 20 23  1  0
 22 24  1  0
 15 25  1  0
 23 26  1  0
 26 27  1  0
 24 28  1  0
 25 28  1  0
 27 29  1  0
 27 30  2  0
 28 31  1  0
 31 32  1  0
 18 33  1  0
 21 33  2  0
 31 34  2  0
M  END
$$$$
