
     RDKit          3D

 35 39  0  0  0  0  0  0  0  0999 V2000
  -28.1100  -21.1250  -11.7830 C   0  0  0  0  0  0  0  0  0  0  0  0
  -29.1380  -20.1340   -9.8150 C   0  0  0  0  0  0  0  0  0  0  0  0
  -26.8640  -19.6120  -10.1060 C   0  0  0  0  0  0  0  0  0  0  0  0
  -26.3470  -18.1740   -8.1970 C   0  0  0  0  0  0  0  0  0  0  0  0
  -24.6510  -18.7420   -9.8540 C   0  0  0  0  0  0  0  0  0  0  0  0
  -30.4600  -21.5050  -11.2460 C   0  0  0  0  0  0  0  0  0  0  0  0
  -28.0100  -20.3360  -10.6490 C   0  0  0  0  0  0  0  0  0  0  0  0
  -29.3460  -21.7100  -12.0780 C   0  0  0  0  0  0  0  0  0  0  0  0
  -27.2470  -18.9400   -8.9190 C   0  0  0  0  0  0  0  0  0  0  0  0
  -25.0380  -18.0800   -8.6770 C   0  0  0  0  0  0  0  0  0  0  0  0
  -28.6770  -19.2570   -8.7170 C   0  0  0  0  0  0  0  0  0  0  0  0
  -25.5650  -19.5150  -10.5780 C   0  0  0  0  0  0  0  0  0  0  0  0
  -29.5470  -18.7540   -7.5500 C   0  0  0  0  0  0  0  0  0  0  0  0
  -30.3630  -20.7110  -10.1010 C   0  0  0  0  0  0  0  0  0  0  0  0
  -30.2682  -17.6131   -7.7884 C   0  0  0  0  0  0  0  0  0  0  0  0
  -31.0512  -17.2267   -6.5999 C   0  0  0  0  0  0  0  0  0  0  0  0
  -30.7450  -17.6313   -5.4512 C   0  0  0  0  0  0  0  0  0  0  0  0
  -31.8820  -22.2510  -11.5274 C   0  0  0  0  0  0  0  0  0  0  0  0
  -31.4242  -15.7458   -6.5094 C   0  0  0  0  0  0  0  0  0  0  0  0
  -31.8288  -17.6863   -4.3624 C   0  0  0  0  0  0  0  0  0  0  0  0
  -31.7779  -16.6005   -3.6423 C   0  0  0  0  0  0  0  0  0  0  0  0
  -31.9846  -16.7046   -2.2856 C   0  0  0  0  0  0  0  0  0  0  0  0
  -31.2386  -15.1243   -7.6151 O   0  0  0  0  0  0  0  0  0  0  0  0
  -31.8253  -15.5318   -1.3822 C   0  0  0  0  0  0  0  0  0  0  0  0
  -32.7491  -21.5193  -12.0110 O   0  0  0  0  0  0  0  0  0  0  0  0
  -32.0148  -15.7815   -0.0332 C   0  0  0  0  0  0  0  0  0  0  0  0
  -31.6132  -23.3351  -12.5666 O   0  0  0  0  0  0  0  0  0  0  0  0
  -32.5669  -16.7395    0.5093 C   0  0  0  0  0  0  0  0  0  0  0  0
  -32.5922  -17.8153   -1.5047 C   0  0  0  0  0  0  0  0  0  0  0  0
  -31.5089  -15.0810   -5.3524 N   0  0  0  0  0  0  0  0  0  0  0  0
  -33.1607  -21.0664  -12.9938 C   0  0  0  0  0  0  0  0  0  0  0  0
  -32.7213  -21.5886  -14.1262 O   0  0  0  0  0  0  0  0  0  0  0  0
  -32.8785  -17.9220   -0.2343 C   0  0  0  0  0  0  0  0  0  0  0  0
  -31.8926  -15.3208   -4.2355 C   0  0  0  0  0  0  0  0  0  0  0  0
  -34.3360  -20.2892  -13.1952 C   0  0  0  0  0  0  0  0  0  0  0  0
  2  7  1  0
  2 11  1  0
  2 14  2  0
  3  7  1  0
  3  9  1  0
  3 12  2  0
  9 11  1  0
 11 13  2  3
  1  7  2  0
  1  8  1  0
  4  9  2  0
  4 10  1  0
  6 14  1  0
  6  8  2  0
  5 12  1  0
  5 10  2  0
 13 15  1  0
 15 16  1  0
 16 17  1  0
  6 18  1  0
 16 19  1  0
 17 20  1  0
 20 21  1  0
 21 22  2  3
 19 23  2  0
 22 24  1  0
 18 25  1  0
 24 26  1  0
 18 27  1  0
 26 28  2  0
 22 29  1  0
 19 30  1  0
 25 31  1  0
 31 32  2  0
 28 33  1  0
 29 33  2  0
 21 34  1  0
 30 34  1  0
 31 35  1  0
M  END
$$$$
