
     RDKit          3D

 36 41  0  0  0  0  0  0  0  0999 V2000
  -28.1100  -21.1250  -11.7830 C   0  0  0  0  0  0  0  0  0  0  0  0
  -29.1380  -20.1340   -9.8150 C   0  0  0  0  0  0  0  0  0  0  0  0
  -26.8640  -19.6120  -10.1060 C   0  0  0  0  0  0  0  0  0  0  0  0
  -26.3470  -18.1740   -8.1970 C   0  0  0  0  0  0  0  0  0  0  0  0
  -24.6510  -18.7420   -9.8540 C   0  0  0  0  0  0  0  0  0  0  0  0
  -30.4600  -21.5050  -11.2460 C   0  0  0  0  0  0  0  0  0  0  0  0
  -28.0100  -20.3360  -10.6490 C   0  0  0  0  0  0  0  0  0  0  0  0
  -29.3460  -21.7100  -12.0780 C   0  0  0  0  0  0  0  0  0  0  0  0
  -27.2470  -18.9400   -8.9190 C   0  0  0  0  0  0  0  0  0  0  0  0
  -25.0380  -18.0800   -8.6770 C   0  0  0  0  0  0  0  0  0  0  0  0
  -28.6770  -19.2570   -8.7170 C   0  0  0  0  0  0  0  0  0  0  0  0
  -25.5650  -19.5150  -10.5780 C   0  0  0  0  0  0  0  0  0  0  0  0
  -29.5470  -18.7540   -7.5500 C   0  0  0  0  0  0  0  0  0  0  0  0
  -30.3630  -20.7110  -10.1010 C   0  0  0  0  0  0  0  0  0  0  0  0
  -30.2682  -17.6131   -7.7884 C   0  0  0  0  0  0  0  0  0  0  0  0
  -31.6351  -22.1828  -11.6616 C   0  0  0  0  0  0  0  0  0  0  0  0
  -31.0673  -17.2422   -6.6095 C   0  0  0  0  0  0  0  0  0  0  0  0
  -30.8352  -17.6300   -5.4844 C   0  0  0  0  0  0  0  0  0  0  0  0
  -31.8425  -17.5181   -4.4068 C   0  0  0  0  0  0  0  0  0  0  0  0
  -31.9122  -16.2767   -6.9594 C   0  0  0  0  0  0  0  0  0  0  0  0
  -31.8043  -18.1809   -3.1628 C   0  0  0  0  0  0  0  0  0  0  0  0
  -31.1219  -17.7015   -2.1569 C   0  0  0  0  0  0  0  0  0  0  0  0
  -30.7808  -17.0114   -8.9472 C   0  0  0  0  0  0  0  0  0  0  0  0
  -32.7933  -15.6006   -5.8736 C   0  0  0  0  0  0  0  0  0  0  0  0
  -31.2503  -18.4850   -0.9471 C   0  0  0  0  0  0  0  0  0  0  0  0
  -31.6527  -15.9410   -8.7818 C   0  0  0  0  0  0  0  0  0  0  0  0
  -32.2544  -19.6026   -1.1942 C   0  0  0  0  0  0  0  0  0  0  0  0
  -32.5813  -19.4352   -3.0304 C   0  0  0  0  0  0  0  0  0  0  0  0
  -33.0423  -20.0546   -4.3257 O   0  0  0  0  0  0  0  0  0  0  0  0
  -31.5515  -14.7608   -9.1426 C   0  0  0  0  0  0  0  0  0  0  0  0
  -32.0625  -22.3964  -12.7860 O   0  0  0  0  0  0  0  0  0  0  0  0
  -32.6225  -14.0021   -9.1137 O   0  0  0  0  0  0  0  0  0  0  0  0
  -30.5912  -14.2952   -9.8497 O   0  0  0  0  0  0  0  0  0  0  0  0
  -32.8929  -16.4185   -4.7446 C   0  0  0  0  0  0  0  0  0  0  0  0
  -32.6492  -22.3222  -10.6893 O   0  0  0  0  0  0  0  0  0  0  0  0
  -32.6787  -20.1941   -2.0730 C   0  0  0  0  0  0  0  0  0  0  0  0
  2  7  1  0
  2 11  1  0
  2 14  2  0
  3  7  1  0
  3  9  1  0
  3 12  2  0
  9 11  1  0
 11 13  2  3
  1  7  2  0
  1  8  1  0
  4  9  2  0
  4 10  1  0
  6 14  1  0
  6  8  2  0
  5 12  1  0
  5 10  2  0
 13 15  1  0
  6 16  1  0
 15 17  1  0
 17 18  1  0
 18 19  2  0
 17 20  2  0
 19 21  1  0
 21 22  2  0
 15 23  2  0
 20 24  1  0
 22 25  1  0
 20 26  1  0
 23 26  1  0
 25 27  2  0
 21 28  1  0
 28 29  1  0
 26 30  1  0
 16 31  1  0
 30 32  2  0
 30 33  1  0
 19 34  1  0
 24 34  2  0
 16 35  2  0
 27 36  1  0
 28 36  2  0
M  END
$$$$
