
     RDKit          3D

 36 42  0  0  0  0  0  0  0  0999 V2000
  -28.1100  -21.1250  -11.7830 C   0  0  0  0  0  0  0  0  0  0  0  0
  -29.1380  -20.1340   -9.8150 C   0  0  0  0  0  0  0  0  0  0  0  0
  -26.8640  -19.6120  -10.1060 C   0  0  0  0  0  0  0  0  0  0  0  0
  -26.3470  -18.1740   -8.1970 C   0  0  0  0  0  0  0  0  0  0  0  0
  -24.6510  -18.7420   -9.8540 C   0  0  0  0  0  0  0  0  0  0  0  0
  -30.4600  -21.5050  -11.2460 C   0  0  0  0  0  0  0  0  0  0  0  0
  -28.0100  -20.3360  -10.6490 C   0  0  0  0  0  0  0  0  0  0  0  0
  -29.3460  -21.7100  -12.0780 C   0  0  0  0  0  0  0  0  0  0  0  0
  -27.2470  -18.9400   -8.9190 C   0  0  0  0  0  0  0  0  0  0  0  0
  -25.0380  -18.0800   -8.6770 C   0  0  0  0  0  0  0  0  0  0  0  0
  -28.6770  -19.2570   -8.7170 C   0  0  0  0  0  0  0  0  0  0  0  0
  -25.5650  -19.5150  -10.5780 C   0  0  0  0  0  0  0  0  0  0  0  0
  -29.5470  -18.7540   -7.5500 C   0  0  0  0  0  0  0  0  0  0  0  0
  -30.3630  -20.7110  -10.1010 C   0  0  0  0  0  0  0  0  0  0  0  0
  -30.2682  -17.6131   -7.7884 C   0  0  0  0  0  0  0  0  0  0  0  0
  -31.6351  -22.1828  -11.6616 C   0  0  0  0  0  0  0  0  0  0  0  0
  -31.0673  -17.2422   -6.6095 C   0  0  0  0  0  0  0  0  0  0  0  0
  -30.8352  -17.6300   -5.4844 C   0  0  0  0  0  0  0  0  0  0  0  0
  -31.8425  -17.5181   -4.4068 C   0  0  0  0  0  0  0  0  0  0  0  0
  -31.9122  -16.2767   -6.9594 C   0  0  0  0  0  0  0  0  0  0  0  0
  -31.8043  -18.1809   -3.1628 C   0  0  0  0  0  0  0  0  0  0  0  0
  -31.1219  -17.7015   -2.1569 C   0  0  0  0  0  0  0  0  0  0  0  0
  -30.7808  -17.0114   -8.9472 C   0  0  0  0  0  0  0  0  0  0  0  0
  -32.7933  -15.6006   -5.8736 C   0  0  0  0  0  0  0  0  0  0  0  0
  -31.2503  -18.4850   -0.9471 C   0  0  0  0  0  0  0  0  0  0  0  0
  -32.7296  -16.3311   -4.6265 C   0  0  0  0  0  0  0  0  0  0  0  0
  -32.1008  -22.3315  -12.7818 O   0  0  0  0  0  0  0  0  0  0  0  0
  -32.4513  -19.4285   -3.0523 C   0  0  0  0  0  0  0  0  0  0  0  0
  -30.6632  -17.8953    0.2536 O   0  0  0  0  0  0  0  0  0  0  0  0
  -32.8071  -21.4952  -10.8409 O   0  0  0  0  0  0  0  0  0  0  0  0
  -33.7682  -20.8715  -11.8111 C   0  0  0  0  0  0  0  0  0  0  0  0
  -31.9957  -19.5271   -0.9555 C   0  0  0  0  0  0  0  0  0  0  0  0
  -33.4198  -21.7367  -13.0591 C   0  0  0  0  0  0  0  0  0  0  0  0
  -32.6030  -20.0834   -2.0627 C   0  0  0  0  0  0  0  0  0  0  0  0
  -31.7899  -16.0074   -8.3855 O   0  0  0  0  0  0  0  0  0  0  0  0
  -32.9876  -19.9647   -4.4053 O   0  0  0  0  0  0  0  0  0  0  0  0
  2  7  1  0
  2 11  1  0
  2 14  2  0
  3  7  1  0
  3  9  1  0
  3 12  2  0
  9 11  1  0
 11 13  2  3
  1  7  2  0
  1  8  1  0
  4  9  2  0
  4 10  1  0
  6 14  1  0
  6  8  2  0
  5 12  1  0
  5 10  2  0
 13 15  1  0
  6 16  1  0
 15 17  1  0
 17 18  1  0
 18 19  2  0
 17 20  2  0
 19 21  1  0
 21 22  2  0
 15 23  2  0
 20 24  1  0
 22 25  1  0
 19 26  1  0
 24 26  2  0
 16 27  1  0
 21 28  1  0
 25 29  1  0
 16 30  1  0
 30 31  1  0
 25 32  2  0
 27 33  1  0
 31 33  1  0
 28 34  2  0
 32 34  1  0
 20 35  1  0
 23 35  1  0
 28 36  1  0
M  END
$$$$
