
     RDKit          3D

 37 43  0  0  0  0  0  0  0  0999 V2000
  -28.1100  -21.1250  -11.7830 C   0  0  0  0  0  0  0  0  0  0  0  0
  -29.1380  -20.1340   -9.8150 C   0  0  0  0  0  0  0  0  0  0  0  0
  -26.8640  -19.6120  -10.1060 C   0  0  0  0  0  0  0  0  0  0  0  0
  -26.3470  -18.1740   -8.1970 C   0  0  0  0  0  0  0  0  0  0  0  0
  -24.6510  -18.7420   -9.8540 C   0  0  0  0  0  0  0  0  0  0  0  0
  -30.4600  -21.5050  -11.2460 C   0  0  0  0  0  0  0  0  0  0  0  0
  -28.0100  -20.3360  -10.6490 C   0  0  0  0  0  0  0  0  0  0  0  0
  -29.3460  -21.7100  -12.0780 C   0  0  0  0  0  0  0  0  0  0  0  0
  -27.2470  -18.9400   -8.9190 C   0  0  0  0  0  0  0  0  0  0  0  0
  -25.0380  -18.0800   -8.6770 C   0  0  0  0  0  0  0  0  0  0  0  0
  -28.6770  -19.2570   -8.7170 C   0  0  0  0  0  0  0  0  0  0  0  0
  -25.5650  -19.5150  -10.5780 C   0  0  0  0  0  0  0  0  0  0  0  0
  -29.5470  -18.7540   -7.5500 C   0  0  0  0  0  0  0  0  0  0  0  0
  -30.3630  -20.7110  -10.1010 C   0  0  0  0  0  0  0  0  0  0  0  0
  -31.6372  -22.1895  -11.6585 N   0  0  0  0  0  0  0  0  0  0  0  0
  -30.2571  -17.6003   -7.7868 C   0  0  0  0  0  0  0  0  0  0  0  0
  -31.0594  -17.2358   -6.6100 C   0  0  0  0  0  0  0  0  0  0  0  0
  -32.1858  -16.7350   -6.5482 C   0  0  0  0  0  0  0  0  0  0  0  0
  -30.4666  -16.8425   -8.5780 C   0  0  0  0  0  0  0  0  0  0  0  0
  -30.9060  -18.0473   -5.1963 C   0  0  0  0  0  0  0  0  0  0  0  0
  -31.6657  -23.1435  -12.5686 C   0  0  0  0  0  0  0  0  0  0  0  0
  -32.4005  -15.7956   -7.7590 C   0  0  0  0  0  0  0  0  0  0  0  0
  -33.5120  -14.9613   -7.8632 O   0  0  0  0  0  0  0  0  0  0  0  0
  -32.9398  -22.8604  -13.3392 C   0  0  0  0  0  0  0  0  0  0  0  0
  -31.8216  -17.8552   -4.2469 C   0  0  0  0  0  0  0  0  0  0  0  0
  -33.8165  -22.0303  -12.4771 C   0  0  0  0  0  0  0  0  0  0  0  0
  -31.6574  -16.8340   -3.5217 C   0  0  0  0  0  0  0  0  0  0  0  0
  -33.1616  -17.8723   -5.0009 C   0  0  0  0  0  0  0  0  0  0  0  0
  -31.9986  -19.2998   -3.5734 C   0  0  0  0  0  0  0  0  0  0  0  0
  -33.0338  -20.1334   -3.7062 C   0  0  0  0  0  0  0  0  0  0  0  0
  -34.1759  -18.7834   -4.6916 C   0  0  0  0  0  0  0  0  0  0  0  0
  -31.5103  -15.8904   -8.8620 C   0  0  0  0  0  0  0  0  0  0  0  0
  -32.8144  -21.3006  -11.6934 C   0  0  0  0  0  0  0  0  0  0  0  0
  -34.1506  -19.8431   -4.1923 O   0  0  0  0  0  0  0  0  0  0  0  0
  -33.3117  -16.7008   -5.7684 C   0  0  0  0  0  0  0  0  0  0  0  0
  -33.7318  -14.3665   -8.7887 C   0  0  0  0  0  0  0  0  0  0  0  0
  -32.8908  -21.3668   -3.0800 O   0  0  0  0  0  0  0  0  0  0  0  0
  2  7  1  0
  2 11  1  0
  2 14  2  0
  3  7  1  0
  3  9  1  0
  3 12  2  0
  9 11  1  0
 11 13  2  3
  1  7  2  0
  1  8  1  0
  4  9  2  0
  4 10  1  0
  6 14  1  0
  6  8  2  0
  5 12  1  0
  5 10  2  0
  6 15  1  0
 13 16  1  0
 16 17  1  0
 17 18  2  0
 16 19  2  0
 17 20  1  0
 15 21  1  0
 18 22  1  0
 22 23  1  0
 21 24  1  0
 20 25  1  0
 24 26  1  0
 25 27  1  0
 25 28  1  0
 25 29  1  0
 29 30  2  0
 28 31  2  0
 19 32  1  0
 22 32  2  0
 15 33  1  0
 26 33  1  0
 30 34  1  0
 31 34  1  0
 18 35  1  0
 28 35  1  0
 23 36  1  0
 30 37  1  0
M  END
$$$$
