
     RDKit          3D

 38 43  0  0  0  0  0  0  0  0999 V2000
  -28.1100  -21.1250  -11.7830 C   0  0  0  0  0  0  0  0  0  0  0  0
  -29.1380  -20.1340   -9.8150 C   0  0  0  0  0  0  0  0  0  0  0  0
  -26.8640  -19.6120  -10.1060 C   0  0  0  0  0  0  0  0  0  0  0  0
  -26.3470  -18.1740   -8.1970 C   0  0  0  0  0  0  0  0  0  0  0  0
  -24.6510  -18.7420   -9.8540 C   0  0  0  0  0  0  0  0  0  0  0  0
  -30.4600  -21.5050  -11.2460 C   0  0  0  0  0  0  0  0  0  0  0  0
  -28.0100  -20.3360  -10.6490 C   0  0  0  0  0  0  0  0  0  0  0  0
  -29.3460  -21.7100  -12.0780 C   0  0  0  0  0  0  0  0  0  0  0  0
  -27.2470  -18.9400   -8.9190 C   0  0  0  0  0  0  0  0  0  0  0  0
  -25.0380  -18.0800   -8.6770 C   0  0  0  0  0  0  0  0  0  0  0  0
  -28.6770  -19.2570   -8.7170 C   0  0  0  0  0  0  0  0  0  0  0  0
  -25.5650  -19.5150  -10.5780 C   0  0  0  0  0  0  0  0  0  0  0  0
  -29.5470  -18.7540   -7.5500 C   0  0  0  0  0  0  0  0  0  0  0  0
  -30.3630  -20.7110  -10.1010 C   0  0  0  0  0  0  0  0  0  0  0  0
  -30.2682  -17.6131   -7.7884 C   0  0  0  0  0  0  0  0  0  0  0  0
  -31.8870  -22.2541  -11.5313 C   0  0  0  0  0  0  0  0  0  0  0  0
  -31.0748  -17.2494   -6.6123 C   0  0  0  0  0  0  0  0  0  0  0  0
  -32.1997  -16.7400   -6.5513 C   0  0  0  0  0  0  0  0  0  0  0  0
  -30.5068  -16.8684   -8.5943 C   0  0  0  0  0  0  0  0  0  0  0  0
  -32.7518  -21.5174  -12.0209 O   0  0  0  0  0  0  0  0  0  0  0  0
  -33.2878  -21.2182  -13.0788 C   0  0  0  0  0  0  0  0  0  0  0  0
  -34.2580  -20.2950  -13.2615 C   0  0  0  0  0  0  0  0  0  0  0  0
  -32.8024  -21.9608  -14.1589 O   0  0  0  0  0  0  0  0  0  0  0  0
  -30.9054  -18.0619   -5.2028 C   0  0  0  0  0  0  0  0  0  0  0  0
  -29.6166  -16.8840   -9.8870 O   0  0  0  0  0  0  0  0  0  0  0  0
  -32.0002  -18.4699   -4.5000 C   0  0  0  0  0  0  0  0  0  0  0  0
  -33.1410  -17.7332   -4.6116 C   0  0  0  0  0  0  0  0  0  0  0  0
  -33.3209  -16.6554   -5.9510 C   0  0  0  0  0  0  0  0  0  0  0  0
  -34.2066  -17.9150   -3.6881 C   0  0  0  0  0  0  0  0  0  0  0  0
  -31.8777  -19.3285   -3.4363 C   0  0  0  0  0  0  0  0  0  0  0  0
  -32.2075  -15.6650   -7.8189 C   0  0  0  0  0  0  0  0  0  0  0  0
  -35.3804  -17.1342   -3.9103 O   0  0  0  0  0  0  0  0  0  0  0  0
  -33.2429  -14.7097   -7.7815 O   0  0  0  0  0  0  0  0  0  0  0  0
  -33.1034  -19.9281   -2.8609 C   0  0  0  0  0  0  0  0  0  0  0  0
  -34.2272  -19.0043   -2.8570 C   0  0  0  0  0  0  0  0  0  0  0  0
  -33.1219  -21.1912   -3.4727 O   0  0  0  0  0  0  0  0  0  0  0  0
  -31.3333  -15.8857   -8.7994 C   0  0  0  0  0  0  0  0  0  0  0  0
  -33.2024  -13.8409   -8.5461 C   0  0  0  0  0  0  0  0  0  0  0  0
  2  7  1  0
  2 11  1  0
  2 14  2  0
  3  7  1  0
  3  9  1  0
  3 12  2  0
  9 11  1  0
 11 13  2  3
  1  7  2  0
  1  8  1  0
  4  9  2  0
  4 10  1  0
  6 14  1  0
  6  8  2  0
  5 12  1  0
  5 10  2  0
 13 15  1  0
  6 16  1  0
 15 17  1  0
 17 18  2  0
 15 19  2  0
 16 20  1  0
 20 21  1  0
 21 22  1  0
 21 23  2  0
 17 24  1  0
 19 25  1  0
 24 26  1  0
 26 27  2  0
 18 28  1  0
 27 28  1  0
 27 29  1  0
 26 30  1  0
 18 31  1  0
 29 32  1  0
 31 33  1  0
 30 34  1  0
 29 35  1  0
 34 35  1  0
 34 36  1  0
 19 37  1  0
 31 37  2  0
 33 38  1  0
M  END
$$$$
