
     RDKit          3D

 38 43  0  0  0  0  0  0  0  0999 V2000
  -28.1100  -21.1250  -11.7830 C   0  0  0  0  0  0  0  0  0  0  0  0
  -29.1380  -20.1340   -9.8150 C   0  0  0  0  0  0  0  0  0  0  0  0
  -26.8640  -19.6120  -10.1060 C   0  0  0  0  0  0  0  0  0  0  0  0
  -26.3470  -18.1740   -8.1970 C   0  0  0  0  0  0  0  0  0  0  0  0
  -24.6510  -18.7420   -9.8540 C   0  0  0  0  0  0  0  0  0  0  0  0
  -30.4600  -21.5050  -11.2460 C   0  0  0  0  0  0  0  0  0  0  0  0
  -28.0100  -20.3360  -10.6490 C   0  0  0  0  0  0  0  0  0  0  0  0
  -29.3460  -21.7100  -12.0780 C   0  0  0  0  0  0  0  0  0  0  0  0
  -27.2470  -18.9400   -8.9190 C   0  0  0  0  0  0  0  0  0  0  0  0
  -25.0380  -18.0800   -8.6770 C   0  0  0  0  0  0  0  0  0  0  0  0
  -28.6770  -19.2570   -8.7170 C   0  0  0  0  0  0  0  0  0  0  0  0
  -25.5650  -19.5150  -10.5780 C   0  0  0  0  0  0  0  0  0  0  0  0
  -29.5470  -18.7540   -7.5500 C   0  0  0  0  0  0  0  0  0  0  0  0
  -30.3630  -20.7110  -10.1010 C   0  0  0  0  0  0  0  0  0  0  0  0
  -30.2682  -17.6131   -7.7884 C   0  0  0  0  0  0  0  0  0  0  0  0
  -31.0512  -17.2267   -6.5999 C   0  0  0  0  0  0  0  0  0  0  0  0
  -30.7450  -17.6313   -5.4512 C   0  0  0  0  0  0  0  0  0  0  0  0
  -31.8820  -22.2510  -11.5274 C   0  0  0  0  0  0  0  0  0  0  0  0
  -32.1652  -16.3316   -6.7029 C   0  0  0  0  0  0  0  0  0  0  0  0
  -32.6437  -15.8118   -7.9915 C   0  0  0  0  0  0  0  0  0  0  0  0
  -31.7576  -23.4945  -11.9074 O   0  0  0  0  0  0  0  0  0  0  0  0
  -30.9479  -17.1078   -8.9937 C   0  0  0  0  0  0  0  0  0  0  0  0
  -31.5649  -17.4409   -4.2751 C   0  0  0  0  0  0  0  0  0  0  0  0
  -33.6607  -14.9086   -8.1259 C   0  0  0  0  0  0  0  0  0  0  0  0
  -31.9607  -16.2639   -9.2079 C   0  0  0  0  0  0  0  0  0  0  0  0
  -32.7833  -22.0749  -10.4694 O   0  0  0  0  0  0  0  0  0  0  0  0
  -32.0069  -18.6691   -3.5169 N   0  0  0  0  0  0  0  0  0  0  0  0
  -31.0512  -16.4692   -3.5344 C   0  0  0  0  0  0  0  0  0  0  0  0
  -32.4772  -19.7830   -4.1047 C   0  0  0  0  0  0  0  0  0  0  0  0
  -32.7911  -20.8643   -3.3172 N   0  0  0  0  0  0  0  0  0  0  0  0
  -32.4927  -18.7010   -2.2418 C   0  0  0  0  0  0  0  0  0  0  0  0
  -34.8594  -15.2203   -8.0558 O   0  0  0  0  0  0  0  0  0  0  0  0
  -32.3439  -17.7318   -1.3135 C   0  0  0  0  0  0  0  0  0  0  0  0
  -33.3791  -13.6272   -8.3239 O   0  0  0  0  0  0  0  0  0  0  0  0
  -30.2815  -15.5478   -3.8396 O   0  0  0  0  0  0  0  0  0  0  0  0
  -32.6635  -20.1167   -1.9827 C   0  0  0  0  0  0  0  0  0  0  0  0
  -31.6094  -16.3873   -2.1389 N   0  0  0  0  0  0  0  0  0  0  0  0
  -32.2019  -17.7802   -0.2704 O   0  0  0  0  0  0  0  0  0  0  0  0
  2  7  1  0
  2 11  1  0
  2 14  2  0
  3  7  1  0
  3  9  1  0
  3 12  2  0
  9 11  1  0
 11 13  2  3
  1  7  2  0
  1  8  1  0
  4  9  2  0
  4 10  1  0
  6 14  1  0
  6  8  2  0
  5 12  1  0
  5 10  2  0
 13 15  1  0
 15 16  1  0
 16 17  1  0
  6 18  1  0
 16 19  2  0
 19 20  1  0
 18 21  1  0
 15 22  2  0
 17 23  1  0
 20 24  1  0
 20 25  2  0
 22 25  1  0
 18 26  2  0
 23 27  1  0
 23 28  1  0
 27 29  1  0
 29 30  2  0
 27 31  1  0
 24 32  2  0
 31 33  1  0
 24 34  1  0
 28 35  2  0
 30 36  1  0
 31 36  2  0
 28 37  1  0
 33 37  1  0
 33 38  2  0
M  END
$$$$
