
     RDKit          3D

 38 43  0  0  0  0  0  0  0  0999 V2000
  -28.1100  -21.1250  -11.7830 C   0  0  0  0  0  0  0  0  0  0  0  0
  -29.1380  -20.1340   -9.8150 C   0  0  0  0  0  0  0  0  0  0  0  0
  -26.8640  -19.6120  -10.1060 C   0  0  0  0  0  0  0  0  0  0  0  0
  -26.3470  -18.1740   -8.1970 C   0  0  0  0  0  0  0  0  0  0  0  0
  -24.6510  -18.7420   -9.8540 C   0  0  0  0  0  0  0  0  0  0  0  0
  -30.4600  -21.5050  -11.2460 C   0  0  0  0  0  0  0  0  0  0  0  0
  -28.0100  -20.3360  -10.6490 C   0  0  0  0  0  0  0  0  0  0  0  0
  -29.3460  -21.7100  -12.0780 C   0  0  0  0  0  0  0  0  0  0  0  0
  -27.2470  -18.9400   -8.9190 C   0  0  0  0  0  0  0  0  0  0  0  0
  -25.0380  -18.0800   -8.6770 C   0  0  0  0  0  0  0  0  0  0  0  0
  -28.6770  -19.2570   -8.7170 C   0  0  0  0  0  0  0  0  0  0  0  0
  -25.5650  -19.5150  -10.5780 C   0  0  0  0  0  0  0  0  0  0  0  0
  -29.5470  -18.7540   -7.5500 C   0  0  0  0  0  0  0  0  0  0  0  0
  -30.3630  -20.7110  -10.1010 C   0  0  0  0  0  0  0  0  0  0  0  0
  -30.2682  -17.6131   -7.7884 C   0  0  0  0  0  0  0  0  0  0  0  0
  -31.0512  -17.2267   -6.5999 C   0  0  0  0  0  0  0  0  0  0  0  0
  -30.7450  -17.6313   -5.4512 C   0  0  0  0  0  0  0  0  0  0  0  0
  -31.8820  -22.2510  -11.5274 C   0  0  0  0  0  0  0  0  0  0  0  0
  -32.1652  -16.3316   -6.7029 C   0  0  0  0  0  0  0  0  0  0  0  0
  -32.6437  -15.8118   -7.9915 C   0  0  0  0  0  0  0  0  0  0  0  0
  -31.7576  -23.4945  -11.9074 O   0  0  0  0  0  0  0  0  0  0  0  0
  -30.9479  -17.1078   -8.9937 C   0  0  0  0  0  0  0  0  0  0  0  0
  -33.6859  -14.9298   -8.0712 O   0  0  0  0  0  0  0  0  0  0  0  0
  -31.6016  -17.5205   -4.2648 C   0  0  0  0  0  0  0  0  0  0  0  0
  -32.5933  -21.4917  -12.5412 C   0  0  0  0  0  0  0  0  0  0  0  0
  -31.9215  -16.1552   -9.1754 C   0  0  0  0  0  0  0  0  0  0  0  0
  -31.3421  -16.5735   -3.4935 C   0  0  0  0  0  0  0  0  0  0  0  0
  -34.8108  -15.0698   -7.8668 C   0  0  0  0  0  0  0  0  0  0  0  0
  -33.0201  -17.6129   -4.7284 C   0  0  0  0  0  0  0  0  0  0  0  0
  -32.3369  -21.7151  -13.8067 O   0  0  0  0  0  0  0  0  0  0  0  0
  -31.5049  -18.6929   -3.6386 O   0  0  0  0  0  0  0  0  0  0  0  0
  -33.7897  -20.9880  -12.3464 O   0  0  0  0  0  0  0  0  0  0  0  0
  -34.0086  -17.9453   -3.7750 C   0  0  0  0  0  0  0  0  0  0  0  0
  -33.3191  -16.3307   -5.4714 C   0  0  0  0  0  0  0  0  0  0  0  0
  -32.7321  -19.3109   -3.0233 C   0  0  0  0  0  0  0  0  0  0  0  0
  -35.3036  -17.5347   -4.3814 O   0  0  0  0  0  0  0  0  0  0  0  0
  -33.8352  -19.1029   -3.5387 O   0  0  0  0  0  0  0  0  0  0  0  0
  -32.4244  -20.8911   -2.9753 C   0  0  0  0  0  0  0  0  0  0  0  0
  2  7  1  0
  2 11  1  0
  2 14  2  0
  3  7  1  0
  3  9  1  0
  3 12  2  0
  9 11  1  0
 11 13  2  3
  1  7  2  0
  1  8  1  0
  4  9  2  0
  4 10  1  0
  6 14  1  0
  6  8  2  0
  5 12  1  0
  5 10  2  0
 13 15  1  0
 15 16  1  0
 16 17  1  0
  6 18  1  0
 16 19  2  0
 19 20  1  0
 18 21  1  0
 15 22  2  0
 20 23  1  0
 17 24  1  0
 18 25  1  0
 20 26  2  0
 22 26  1  0
 24 27  1  0
 23 28  1  0
 24 29  1  0
 25 30  2  0
 24 31  1  0
 25 32  1  0
 29 33  1  0
 19 34  1  0
 29 34  1  0
 31 35  1  0
 33 36  1  0
 33 37  1  0
 35 37  1  0
 35 38  1  0
M  END
$$$$
