
     RDKit          3D

 26 29  0  0  0  0  0  0  0  0999 V2000
  -28.1100  -21.1250  -11.7830 C   0  0  0  0  0  0  0  0  0  0  0  0
  -29.1380  -20.1340   -9.8150 C   0  0  0  0  0  0  0  0  0  0  0  0
  -26.8640  -19.6120  -10.1060 C   0  0  0  0  0  0  0  0  0  0  0  0
  -26.3470  -18.1740   -8.1970 C   0  0  0  0  0  0  0  0  0  0  0  0
  -24.6510  -18.7420   -9.8540 C   0  0  0  0  0  0  0  0  0  0  0  0
  -30.4600  -21.5050  -11.2460 C   0  0  0  0  0  0  0  0  0  0  0  0
  -28.0100  -20.3360  -10.6490 C   0  0  0  0  0  0  0  0  0  0  0  0
  -29.3460  -21.7100  -12.0780 C   0  0  0  0  0  0  0  0  0  0  0  0
  -27.2470  -18.9400   -8.9190 C   0  0  0  0  0  0  0  0  0  0  0  0
  -25.0380  -18.0800   -8.6770 C   0  0  0  0  0  0  0  0  0  0  0  0
  -28.6770  -19.2570   -8.7170 C   0  0  0  0  0  0  0  0  0  0  0  0
  -25.5650  -19.5150  -10.5780 C   0  0  0  0  0  0  0  0  0  0  0  0
  -29.5470  -18.7540   -7.5500 C   0  0  0  0  0  0  0  0  0  0  0  0
  -30.3630  -20.7110  -10.1010 C   0  0  0  0  0  0  0  0  0  0  0  0
  -30.2682  -17.6131   -7.7884 C   0  0  0  0  0  0  0  0  0  0  0  0
  -31.0512  -17.2267   -6.5999 C   0  0  0  0  0  0  0  0  0  0  0  0
  -32.1941  -16.7694   -6.5333 C   0  0  0  0  0  0  0  0  0  0  0  0
  -30.4316  -17.4800   -5.2841 C   0  0  0  0  0  0  0  0  0  0  0  0
  -33.0443  -16.3688   -5.4402 C   0  0  0  0  0  0  0  0  0  0  0  0
  -31.8834  -22.2512  -11.5278 C   0  0  0  0  0  0  0  0  0  0  0  0
  -34.3339  -15.8924   -5.5463 C   0  0  0  0  0  0  0  0  0  0  0  0
  -31.7563  -23.4933  -11.9231 O   0  0  0  0  0  0  0  0  0  0  0  0
  -31.1536  -17.2740   -4.1264 C   0  0  0  0  0  0  0  0  0  0  0  0
  -34.6685  -14.7827   -5.0399 C   0  0  0  0  0  0  0  0  0  0  0  0
  -32.3689  -16.6948   -4.2120 C   0  0  0  0  0  0  0  0  0  0  0  0
  -32.8956  -21.5829  -11.8604 O   0  0  0  0  0  0  0  0  0  0  0  0
  2  7  1  0
  2 11  1  0
  2 14  2  0
  3  7  1  0
  3  9  1  0
  3 12  2  0
  9 11  1  0
 11 13  2  3
  1  7  2  0
  1  8  1  0
  4  9  2  0
  4 10  1  0
  6 14  1  0
  6  8  2  0
  5 12  1  0
  5 10  2  0
 13 15  1  0
 15 16  1  0
 16 17  2  0
 16 18  1  0
 17 19  1  0
  6 20  1  0
 19 21  1  0
 20 22  1  0
 18 23  2  0
 21 24  2  0
 19 25  2  0
 23 25  1  0
 20 26  2  0
M  END
$$$$
