
     RDKit          3D

 39 44  0  0  0  0  0  0  0  0999 V2000
  -28.1100  -21.1250  -11.7830 C   0  0  0  0  0  0  0  0  0  0  0  0
  -29.1380  -20.1340   -9.8150 C   0  0  0  0  0  0  0  0  0  0  0  0
  -26.8640  -19.6120  -10.1060 C   0  0  0  0  0  0  0  0  0  0  0  0
  -26.3470  -18.1740   -8.1970 C   0  0  0  0  0  0  0  0  0  0  0  0
  -24.6510  -18.7420   -9.8540 C   0  0  0  0  0  0  0  0  0  0  0  0
  -30.4600  -21.5050  -11.2460 C   0  0  0  0  0  0  0  0  0  0  0  0
  -28.0100  -20.3360  -10.6490 C   0  0  0  0  0  0  0  0  0  0  0  0
  -29.3460  -21.7100  -12.0780 C   0  0  0  0  0  0  0  0  0  0  0  0
  -27.2470  -18.9400   -8.9190 C   0  0  0  0  0  0  0  0  0  0  0  0
  -25.0380  -18.0800   -8.6770 C   0  0  0  0  0  0  0  0  0  0  0  0
  -28.6770  -19.2570   -8.7170 C   0  0  0  0  0  0  0  0  0  0  0  0
  -25.5650  -19.5150  -10.5780 C   0  0  0  0  0  0  0  0  0  0  0  0
  -29.5470  -18.7540   -7.5500 C   0  0  0  0  0  0  0  0  0  0  0  0
  -30.3630  -20.7110  -10.1010 C   0  0  0  0  0  0  0  0  0  0  0  0
  -31.6372  -22.1895  -11.6585 N   0  0  0  0  0  0  0  0  0  0  0  0
  -30.2571  -17.6003   -7.7868 C   0  0  0  0  0  0  0  0  0  0  0  0
  -31.0594  -17.2358   -6.6100 C   0  0  0  0  0  0  0  0  0  0  0  0
  -32.1858  -16.7350   -6.5482 C   0  0  0  0  0  0  0  0  0  0  0  0
  -30.4666  -16.8425   -8.5780 C   0  0  0  0  0  0  0  0  0  0  0  0
  -30.9060  -18.0473   -5.1963 C   0  0  0  0  0  0  0  0  0  0  0  0
  -31.6657  -23.1435  -12.5686 C   0  0  0  0  0  0  0  0  0  0  0  0
  -31.7940  -17.7755   -4.2400 C   0  0  0  0  0  0  0  0  0  0  0  0
  -33.2340  -16.6169   -5.7193 C   0  0  0  0  0  0  0  0  0  0  0  0
  -32.9392  -22.8589  -13.3401 C   0  0  0  0  0  0  0  0  0  0  0  0
  -33.1180  -17.3572   -4.4696 C   0  0  0  0  0  0  0  0  0  0  0  0
  -29.5608  -16.7548   -9.7991 C   0  0  0  0  0  0  0  0  0  0  0  0
  -33.8157  -22.0270  -12.4784 C   0  0  0  0  0  0  0  0  0  0  0  0
  -32.4387  -15.9300   -7.9545 C   0  0  0  0  0  0  0  0  0  0  0  0
  -33.5720  -15.1251   -8.0231 O   0  0  0  0  0  0  0  0  0  0  0  0
  -31.0824  -16.7785   -3.3289 C   0  0  0  0  0  0  0  0  0  0  0  0
  -32.2226  -18.8995   -3.2967 N   0  0  0  0  0  0  0  0  0  0  0  0
  -32.6881  -21.6724  -11.3946 C   0  0  0  0  0  0  0  0  0  0  0  0
  -31.5698  -16.4874   -2.1672 O   0  0  0  0  0  0  0  0  0  0  0  0
  -32.6252  -20.0926   -3.9157 C   0  0  0  0  0  0  0  0  0  0  0  0
  -31.4586  -15.8637   -8.8407 C   0  0  0  0  0  0  0  0  0  0  0  0
  -33.5742  -13.9813   -7.7811 C   0  0  0  0  0  0  0  0  0  0  0  0
  -32.8394  -20.0748   -5.1477 O   0  0  0  0  0  0  0  0  0  0  0  0
  -32.6809  -21.0900   -3.1620 N   0  0  0  0  0  0  0  0  0  0  0  0
  -30.0208  -16.2342   -3.6895 O   0  0  0  0  0  0  0  0  0  0  0  0
  2  7  1  0
  2 11  1  0
  2 14  2  0
  3  7  1  0
  3  9  1  0
  3 12  2  0
  9 11  1  0
 11 13  2  3
  1  7  2  0
  1  8  1  0
  4  9  2  0
  4 10  1  0
  6 14  1  0
  6  8  2  0
  5 12  1  0
  5 10  2  0
  6 15  1  0
 13 16  1  0
 16 17  1  0
 17 18  2  0
 16 19  2  0
 17 20  1  0
 15 21  1  0
 20 22  1  0
 18 23  1  0
 21 24  1  0
 22 25  1  0
 23 25  1  0
 19 26  1  0
 24 27  1  0
 18 28  1  0
 28 29  1  0
 22 30  1  0
 22 31  1  0
 15 32  1  0
 27 32  1  0
 30 33  2  0
 31 34  1  0
 19 35  1  0
 28 35  2  0
 29 36  1  0
 34 37  2  0
 34 38  1  0
 30 39  1  0
M  END
$$$$
