
     RDKit          3D

 40 45  0  0  0  0  0  0  0  0999 V2000
  -28.1100  -21.1250  -11.7830 C   0  0  0  0  0  0  0  0  0  0  0  0
  -29.1380  -20.1340   -9.8150 C   0  0  0  0  0  0  0  0  0  0  0  0
  -26.8640  -19.6120  -10.1060 C   0  0  0  0  0  0  0  0  0  0  0  0
  -26.3470  -18.1740   -8.1970 C   0  0  0  0  0  0  0  0  0  0  0  0
  -24.6510  -18.7420   -9.8540 C   0  0  0  0  0  0  0  0  0  0  0  0
  -30.4600  -21.5050  -11.2460 C   0  0  0  0  0  0  0  0  0  0  0  0
  -28.0100  -20.3360  -10.6490 C   0  0  0  0  0  0  0  0  0  0  0  0
  -29.3460  -21.7100  -12.0780 C   0  0  0  0  0  0  0  0  0  0  0  0
  -27.2470  -18.9400   -8.9190 C   0  0  0  0  0  0  0  0  0  0  0  0
  -25.0380  -18.0800   -8.6770 C   0  0  0  0  0  0  0  0  0  0  0  0
  -28.6770  -19.2570   -8.7170 C   0  0  0  0  0  0  0  0  0  0  0  0
  -25.5650  -19.5150  -10.5780 C   0  0  0  0  0  0  0  0  0  0  0  0
  -29.5470  -18.7540   -7.5500 C   0  0  0  0  0  0  0  0  0  0  0  0
  -30.3630  -20.7110  -10.1010 C   0  0  0  0  0  0  0  0  0  0  0  0
  -31.6372  -22.1895  -11.6585 N   0  0  0  0  0  0  0  0  0  0  0  0
  -31.6596  -23.1099  -12.5883 C   0  0  0  0  0  0  0  0  0  0  0  0
  -30.2377  -17.5894   -7.7821 C   0  0  0  0  0  0  0  0  0  0  0  0
  -31.0309  -17.2219   -6.5960 C   0  0  0  0  0  0  0  0  0  0  0  0
  -32.1239  -22.5265  -13.8248 C   0  0  0  0  0  0  0  0  0  0  0  0
  -30.7865  -17.6153   -5.4577 C   0  0  0  0  0  0  0  0  0  0  0  0
  -31.6712  -17.3381   -4.2831 C   0  0  0  0  0  0  0  0  0  0  0  0
  -32.1182  -16.2558   -6.7005 C   0  0  0  0  0  0  0  0  0  0  0  0
  -32.8659  -21.3002  -13.6645 C   0  0  0  0  0  0  0  0  0  0  0  0
  -32.8265  -16.6068   -4.5105 C   0  0  0  0  0  0  0  0  0  0  0  0
  -32.3400  -15.6944   -8.0389 C   0  0  0  0  0  0  0  0  0  0  0  0
  -33.0348  -16.0349   -5.7178 C   0  0  0  0  0  0  0  0  0  0  0  0
  -31.4385  -18.0389   -2.8810 C   0  0  0  0  0  0  0  0  0  0  0  0
  -30.6722  -17.2937   -2.1266 O   0  0  0  0  0  0  0  0  0  0  0  0
  -33.3178  -21.1089  -12.3234 C   0  0  0  0  0  0  0  0  0  0  0  0
  -30.4527  -16.9033   -9.0093 C   0  0  0  0  0  0  0  0  0  0  0  0
  -32.7619  -21.4985  -11.3621 C   0  0  0  0  0  0  0  0  0  0  0  0
  -29.5799  -17.1263  -10.0896 C   0  0  0  0  0  0  0  0  0  0  0  0
  -33.3242  -14.6945   -8.2340 C   0  0  0  0  0  0  0  0  0  0  0  0
  -31.8869  -19.2494   -2.5772 C   0  0  0  0  0  0  0  0  0  0  0  0
  -31.8239  -19.4918   -1.2726 O   0  0  0  0  0  0  0  0  0  0  0  0
  -33.0458  -20.5093  -14.7521 O   0  0  0  0  0  0  0  0  0  0  0  0
  -32.5074  -20.2489   -3.4466 C   0  0  0  0  0  0  0  0  0  0  0  0
  -32.9194  -21.2427   -3.2422 O   0  0  0  0  0  0  0  0  0  0  0  0
  -31.4286  -15.9150   -9.1682 C   0  0  0  0  0  0  0  0  0  0  0  0
  -32.6660  -19.6798   -4.7554 O   0  0  0  0  0  0  0  0  0  0  0  0
  2  7  1  0
  2 11  1  0
  2 14  2  0
  3  7  1  0
  3  9  1  0
  3 12  2  0
  9 11  1  0
 11 13  2  3
  1  7  2  0
  1  8  1  0
  4  9  2  0
  4 10  1  0
  6 14  1  0
  6  8  2  0
  5 12  1  0
  5 10  2  0
  6 15  1  0
 15 16  1  0
 13 17  1  0
 17 18  1  0
 16 19  1  0
 18 20  2  0
 20 21  1  0
 18 22  1  0
 19 23  1  0
 21 24  2  0
 22 25  1  0
 22 26  2  0
 24 26  1  0
 21 27  1  0
 27 28  1  0
 23 29  1  0
 17 30  2  0
 15 31  1  0
 29 31  1  0
 30 32  1  0
 25 33  1  0
 27 34  2  3
 34 35  1  0
 23 36  2  0
 34 37  1  0
 37 38  2  0
 25 39  2  0
 30 39  1  0
 37 40  1  0
M  END
$$$$
