
     RDKit          3D

 41 47  0  0  0  0  0  0  0  0999 V2000
  -28.1100  -21.1250  -11.7830 C   0  0  0  0  0  0  0  0  0  0  0  0
  -29.1380  -20.1340   -9.8150 C   0  0  0  0  0  0  0  0  0  0  0  0
  -26.8640  -19.6120  -10.1060 C   0  0  0  0  0  0  0  0  0  0  0  0
  -26.3470  -18.1740   -8.1970 C   0  0  0  0  0  0  0  0  0  0  0  0
  -24.6510  -18.7420   -9.8540 C   0  0  0  0  0  0  0  0  0  0  0  0
  -30.4600  -21.5050  -11.2460 C   0  0  0  0  0  0  0  0  0  0  0  0
  -28.0100  -20.3360  -10.6490 C   0  0  0  0  0  0  0  0  0  0  0  0
  -29.3460  -21.7100  -12.0780 C   0  0  0  0  0  0  0  0  0  0  0  0
  -27.2470  -18.9400   -8.9190 C   0  0  0  0  0  0  0  0  0  0  0  0
  -25.0380  -18.0800   -8.6770 C   0  0  0  0  0  0  0  0  0  0  0  0
  -28.6770  -19.2570   -8.7170 C   0  0  0  0  0  0  0  0  0  0  0  0
  -25.5650  -19.5150  -10.5780 C   0  0  0  0  0  0  0  0  0  0  0  0
  -29.5470  -18.7540   -7.5500 C   0  0  0  0  0  0  0  0  0  0  0  0
  -30.3630  -20.7110  -10.1010 C   0  0  0  0  0  0  0  0  0  0  0  0
  -31.6372  -22.1895  -11.6585 N   0  0  0  0  0  0  0  0  0  0  0  0
  -30.2571  -17.6003   -7.7868 C   0  0  0  0  0  0  0  0  0  0  0  0
  -31.0594  -17.2358   -6.6100 C   0  0  0  0  0  0  0  0  0  0  0  0
  -32.1858  -16.7350   -6.5482 C   0  0  0  0  0  0  0  0  0  0  0  0
  -30.4666  -16.8425   -8.5780 C   0  0  0  0  0  0  0  0  0  0  0  0
  -30.9060  -18.0473   -5.1963 C   0  0  0  0  0  0  0  0  0  0  0  0
  -31.6657  -23.1435  -12.5686 C   0  0  0  0  0  0  0  0  0  0  0  0
  -31.7940  -17.7755   -4.2400 C   0  0  0  0  0  0  0  0  0  0  0  0
  -33.2340  -16.6169   -5.7193 C   0  0  0  0  0  0  0  0  0  0  0  0
  -32.9392  -22.8589  -13.3401 C   0  0  0  0  0  0  0  0  0  0  0  0
  -33.5297  -21.5329  -13.0725 C   0  0  0  0  0  0  0  0  0  0  0  0
  -33.0394  -17.1480   -4.4357 C   0  0  0  0  0  0  0  0  0  0  0  0
  -33.4393  -16.3526   -3.2654 C   0  0  0  0  0  0  0  0  0  0  0  0
  -33.1715  -21.2782  -11.6249 C   0  0  0  0  0  0  0  0  0  0  0  0
  -30.9109  -17.1660   -3.2103 C   0  0  0  0  0  0  0  0  0  0  0  0
  -32.2270  -19.0340   -3.7788 C   0  0  0  0  0  0  0  0  0  0  0  0
  -32.1900  -15.9111   -8.0081 C   0  0  0  0  0  0  0  0  0  0  0  0
  -31.4944  -15.9650   -8.8780 C   0  0  0  0  0  0  0  0  0  0  0  0
  -31.6280  -16.2588   -2.2232 C   0  0  0  0  0  0  0  0  0  0  0  0
  -33.0213  -20.4415  -13.8753 C   0  0  0  0  0  0  0  0  0  0  0  0
  -32.4616  -20.6915  -15.0746 O   0  0  0  0  0  0  0  0  0  0  0  0
  -32.7498  -19.8277   -3.3140 C   0  0  0  0  0  0  0  0  0  0  0  0
  -32.7017  -21.0592   -3.5962 O   0  0  0  0  0  0  0  0  0  0  0  0
  -32.8320  -15.9915   -2.3043 C   0  0  0  0  0  0  0  0  0  0  0  0
  -30.9171  -15.5631   -1.2805 O   0  0  0  0  0  0  0  0  0  0  0  0
  -33.8262  -19.5301   -2.5441 O   0  0  0  0  0  0  0  0  0  0  0  0
  -33.1060  -19.1616  -13.5888 O   0  0  0  0  0  0  0  0  0  0  0  0
  2  7  1  0
  2 11  1  0
  2 14  2  0
  3  7  1  0
  3  9  1  0
  3 12  2  0
  9 11  1  0
 11 13  2  3
  1  7  2  0
  1  8  1  0
  4  9  2  0
  4 10  1  0
  6 14  1  0
  6  8  2  0
  5 12  1  0
  5 10  2  0
  6 15  1  0
 13 16  1  0
 16 17  1  0
 17 18  2  0
 16 19  2  0
 17 20  1  0
 15 21  1  0
 20 22  1  0
 18 23  1  0
 21 24  1  0
 24 25  1  0
 22 26  1  0
 23 26  1  0
 26 27  1  0
 15 28  1  0
 25 28  1  0
 22 29  1  0
 22 30  1  0
 18 31  1  0
 19 32  1  0
 31 32  2  0
 29 33  1  0
 25 34  1  0
 34 35  2  0
 30 36  1  0
 36 37  2  0
 27 38  2  0
 33 38  1  0
 33 39  2  0
 36 40  1  0
 34 41  1  0
M  END
$$$$
