
     RDKit          3D

 42 47  0  0  0  0  0  0  0  0999 V2000
  -28.1100  -21.1250  -11.7830 C   0  0  0  0  0  0  0  0  0  0  0  0
  -29.1380  -20.1340   -9.8150 C   0  0  0  0  0  0  0  0  0  0  0  0
  -26.8640  -19.6120  -10.1060 C   0  0  0  0  0  0  0  0  0  0  0  0
  -26.3470  -18.1740   -8.1970 C   0  0  0  0  0  0  0  0  0  0  0  0
  -24.6510  -18.7420   -9.8540 C   0  0  0  0  0  0  0  0  0  0  0  0
  -30.4600  -21.5050  -11.2460 C   0  0  0  0  0  0  0  0  0  0  0  0
  -28.0100  -20.3360  -10.6490 C   0  0  0  0  0  0  0  0  0  0  0  0
  -29.3460  -21.7100  -12.0780 C   0  0  0  0  0  0  0  0  0  0  0  0
  -27.2470  -18.9400   -8.9190 C   0  0  0  0  0  0  0  0  0  0  0  0
  -25.0380  -18.0800   -8.6770 C   0  0  0  0  0  0  0  0  0  0  0  0
  -28.6770  -19.2570   -8.7170 C   0  0  0  0  0  0  0  0  0  0  0  0
  -25.5650  -19.5150  -10.5780 C   0  0  0  0  0  0  0  0  0  0  0  0
  -29.5470  -18.7540   -7.5500 C   0  0  0  0  0  0  0  0  0  0  0  0
  -30.3630  -20.7110  -10.1010 C   0  0  0  0  0  0  0  0  0  0  0  0
  -31.8812  -22.2717  -11.5420 C   0  0  0  0  0  0  0  0  0  0  0  0
  -31.7580  -23.4881  -11.8835 O   0  0  0  0  0  0  0  0  0  0  0  0
  -32.5774  -21.4786  -12.5249 C   0  0  0  0  0  0  0  0  0  0  0  0
  -32.3290  -21.6768  -13.7984 O   0  0  0  0  0  0  0  0  0  0  0  0
  -30.2298  -17.5806   -7.7814 C   0  0  0  0  0  0  0  0  0  0  0  0
  -31.0325  -17.2146   -6.6067 C   0  0  0  0  0  0  0  0  0  0  0  0
  -30.7945  -17.5228   -5.4748 C   0  0  0  0  0  0  0  0  0  0  0  0
  -31.7946  -17.4083   -4.4180 C   0  0  0  0  0  0  0  0  0  0  0  0
  -33.2022  -20.3682  -12.3212 O   0  0  0  0  0  0  0  0  0  0  0  0
  -33.1079  -17.2204   -4.6813 C   0  0  0  0  0  0  0  0  0  0  0  0
  -33.3087  -19.1386  -12.8887 C   0  0  0  0  0  0  0  0  0  0  0  0
  -31.4345  -17.8806   -3.0189 C   0  0  0  0  0  0  0  0  0  0  0  0
  -33.2866  -18.0946  -12.0554 C   0  0  0  0  0  0  0  0  0  0  0  0
  -33.6461  -18.2156  -10.8038 O   0  0  0  0  0  0  0  0  0  0  0  0
  -32.4600  -16.8677   -6.9554 C   0  0  0  0  0  0  0  0  0  0  0  0
  -30.5867  -17.0421   -2.3707 O   0  0  0  0  0  0  0  0  0  0  0  0
  -34.1207  -17.2332   -3.6927 C   0  0  0  0  0  0  0  0  0  0  0  0
  -32.7231  -16.4273   -8.3379 C   0  0  0  0  0  0  0  0  0  0  0  0
  -32.1230  -18.7759   -2.1690 C   0  0  0  0  0  0  0  0  0  0  0  0
  -33.8916  -15.9398   -8.5036 O   0  0  0  0  0  0  0  0  0  0  0  0
  -32.0095  -16.8500   -9.3334 O   0  0  0  0  0  0  0  0  0  0  0  0
  -33.8498  -18.4881   -2.6675 C   0  0  0  0  0  0  0  0  0  0  0  0
  -32.1724  -20.1875   -2.6341 C   0  0  0  0  0  0  0  0  0  0  0  0
  -33.4585  -16.6009   -6.0021 C   0  0  0  0  0  0  0  0  0  0  0  0
  -32.0827  -18.7007   -0.7812 C   0  0  0  0  0  0  0  0  0  0  0  0
  -32.8595  -16.8281  -12.4176 O   0  0  0  0  0  0  0  0  0  0  0  0
  -30.5876  -16.7784   -9.1113 C   0  0  0  0  0  0  0  0  0  0  0  0
  -33.0781  -20.7682   -3.5719 O   0  0  0  0  0  0  0  0  0  0  0  0
  2  7  1  0
  2 11  1  0
  2 14  2  0
  3  7  1  0
  3  9  1  0
  3 12  2  0
  9 11  1  0
 11 13  2  3
  1  7  2  0
  1  8  1  0
  4  9  2  0
  4 10  1  0
  6 14  1  0
  6  8  2  0
  5 12  1  0
  5 10  2  0
  6 15  1  0
 15 16  1  0
 15 17  1  0
 17 18  2  0
 13 19  1  0
 19 20  1  0
 20 21  1  0
 21 22  2  0
 17 23  1  0
 22 24  1  0
 23 25  1  0
 22 26  1  0
 25 27  1  0
 27 28  1  0
 20 29  2  0
 26 30  1  0
 24 31  1  0
 29 32  1  0
 26 33  1  0
 32 34  2  0
 32 35  1  0
 31 36  1  0
 33 36  1  0
 33 37  1  0
 24 38  2  0
 29 38  1  0
 33 39  1  0
 27 40  2  0
 19 41  1  0
 35 41  1  0
 37 42  1  0
M  END
$$$$
