
     RDKit          3D

 27 30  0  0  0  0  0  0  0  0999 V2000
  -28.1100  -21.1250  -11.7830 C   0  0  0  0  0  0  0  0  0  0  0  0
  -29.1380  -20.1340   -9.8150 C   0  0  0  0  0  0  0  0  0  0  0  0
  -26.8640  -19.6120  -10.1060 C   0  0  0  0  0  0  0  0  0  0  0  0
  -26.3470  -18.1740   -8.1970 C   0  0  0  0  0  0  0  0  0  0  0  0
  -24.6510  -18.7420   -9.8540 C   0  0  0  0  0  0  0  0  0  0  0  0
  -30.4600  -21.5050  -11.2460 C   0  0  0  0  0  0  0  0  0  0  0  0
  -28.0100  -20.3360  -10.6490 C   0  0  0  0  0  0  0  0  0  0  0  0
  -29.3460  -21.7100  -12.0780 C   0  0  0  0  0  0  0  0  0  0  0  0
  -27.2470  -18.9400   -8.9190 C   0  0  0  0  0  0  0  0  0  0  0  0
  -25.0380  -18.0800   -8.6770 C   0  0  0  0  0  0  0  0  0  0  0  0
  -28.6770  -19.2570   -8.7170 C   0  0  0  0  0  0  0  0  0  0  0  0
  -25.5650  -19.5150  -10.5780 C   0  0  0  0  0  0  0  0  0  0  0  0
  -29.5470  -18.7540   -7.5500 C   0  0  0  0  0  0  0  0  0  0  0  0
  -30.3630  -20.7110  -10.1010 C   0  0  0  0  0  0  0  0  0  0  0  0
  -30.2682  -17.6131   -7.7884 C   0  0  0  0  0  0  0  0  0  0  0  0
  -31.6351  -22.1828  -11.6616 N   0  0  0  0  0  0  0  0  0  0  0  0
  -31.0719  -17.2484   -6.6106 C   0  0  0  0  0  0  0  0  0  0  0  0
  -32.2047  -16.6972   -6.5886 C   0  0  0  0  0  0  0  0  0  0  0  0
  -30.4594  -17.2619   -5.2621 C   0  0  0  0  0  0  0  0  0  0  0  0
  -32.8413  -21.9527  -11.0550 O   0  0  0  0  0  0  0  0  0  0  0  0
  -31.7012  -23.3308  -12.4762 C   0  0  0  0  0  0  0  0  0  0  0  0
  -31.1650  -17.1372   -4.1113 C   0  0  0  0  0  0  0  0  0  0  0  0
  -30.6185  -17.3721   -2.8575 C   0  0  0  0  0  0  0  0  0  0  0  0
  -32.6166  -17.1777   -4.2952 C   0  0  0  0  0  0  0  0  0  0  0  0
  -33.1493  -16.8776   -5.5188 C   0  0  0  0  0  0  0  0  0  0  0  0
  -33.4235  -17.2884   -3.1741 C   0  0  0  0  0  0  0  0  0  0  0  0
  -34.5608  -16.7179   -2.9624 C   0  0  0  0  0  0  0  0  0  0  0  0
  2  7  1  0
  2 11  1  0
  2 14  2  0
  3  7  1  0
  3  9  1  0
  3 12  2  0
  9 11  1  0
 11 13  2  3
  1  7  2  0
  1  8  1  0
  4  9  2  0
  4 10  1  0
  6 14  1  0
  6  8  2  0
  5 12  1  0
  5 10  2  0
 13 15  1  0
  6 16  1  0
 15 17  1  0
 17 18  2  0
 17 19  1  0
 16 20  1  0
 16 21  1  0
 19 22  2  0
 22 23  1  0
 22 24  1  0
 18 25  1  0
 24 25  1  0
 24 26  2  3
 26 27  1  0
M  END
$$$$
