
     RDKit          3D

 43 50  0  0  0  0  0  0  0  0999 V2000
  -28.1100  -21.1250  -11.7830 C   0  0  0  0  0  0  0  0  0  0  0  0
  -29.1380  -20.1340   -9.8150 C   0  0  0  0  0  0  0  0  0  0  0  0
  -26.8640  -19.6120  -10.1060 C   0  0  0  0  0  0  0  0  0  0  0  0
  -26.3470  -18.1740   -8.1970 C   0  0  0  0  0  0  0  0  0  0  0  0
  -24.6510  -18.7420   -9.8540 C   0  0  0  0  0  0  0  0  0  0  0  0
  -30.4600  -21.5050  -11.2460 C   0  0  0  0  0  0  0  0  0  0  0  0
  -28.0100  -20.3360  -10.6490 C   0  0  0  0  0  0  0  0  0  0  0  0
  -29.3460  -21.7100  -12.0780 C   0  0  0  0  0  0  0  0  0  0  0  0
  -27.2470  -18.9400   -8.9190 C   0  0  0  0  0  0  0  0  0  0  0  0
  -25.0380  -18.0800   -8.6770 C   0  0  0  0  0  0  0  0  0  0  0  0
  -28.6770  -19.2570   -8.7170 C   0  0  0  0  0  0  0  0  0  0  0  0
  -25.5650  -19.5150  -10.5780 C   0  0  0  0  0  0  0  0  0  0  0  0
  -29.5470  -18.7540   -7.5500 C   0  0  0  0  0  0  0  0  0  0  0  0
  -30.3630  -20.7110  -10.1010 C   0  0  0  0  0  0  0  0  0  0  0  0
  -30.2682  -17.6131   -7.7884 C   0  0  0  0  0  0  0  0  0  0  0  0
  -31.8870  -22.2541  -11.5313 C   0  0  0  0  0  0  0  0  0  0  0  0
  -31.0748  -17.2494   -6.6123 C   0  0  0  0  0  0  0  0  0  0  0  0
  -32.7363  -21.5240  -12.0456 N   0  0  0  0  0  0  0  0  0  0  0  0
  -32.2123  -16.5880   -6.7015 C   0  0  0  0  0  0  0  0  0  0  0  0
  -30.4388  -16.8913   -8.9113 C   0  0  0  0  0  0  0  0  0  0  0  0
  -30.8655  -17.8672   -5.3205 C   0  0  0  0  0  0  0  0  0  0  0  0
  -33.2233  -16.3508   -5.7356 C   0  0  0  0  0  0  0  0  0  0  0  0
  -34.3840  -15.6550   -5.9943 O   0  0  0  0  0  0  0  0  0  0  0  0
  -31.7328  -17.7891   -4.2474 C   0  0  0  0  0  0  0  0  0  0  0  0
  -31.5306  -15.9507   -9.0333 C   0  0  0  0  0  0  0  0  0  0  0  0
  -31.7539  -23.2229  -12.6371 C   0  0  0  0  0  0  0  0  0  0  0  0
  -34.2759  -14.6293   -6.7753 C   0  0  0  0  0  0  0  0  0  0  0  0
  -33.3547  -21.9917  -13.1003 C   0  0  0  0  0  0  0  0  0  0  0  0
  -33.6082  -14.8344   -8.0984 C   0  0  0  0  0  0  0  0  0  0  0  0
  -32.4296  -15.7921   -7.9644 C   0  0  0  0  0  0  0  0  0  0  0  0
  -32.8989  -20.1937  -11.6446 C   0  0  0  0  0  0  0  0  0  0  0  0
  -32.9912  -17.1217   -4.4815 C   0  0  0  0  0  0  0  0  0  0  0  0
  -31.7684  -18.5954   -3.1077 C   0  0  0  0  0  0  0  0  0  0  0  0
  -32.4909  -19.8224   -2.9956 C   0  0  0  0  0  0  0  0  0  0  0  0
  -34.7807  -13.4332   -6.6644 C   0  0  0  0  0  0  0  0  0  0  0  0
  -34.1620  -21.1906  -13.9883 O   0  0  0  0  0  0  0  0  0  0  0  0
  -33.6325  -14.0053   -9.1884 C   0  0  0  0  0  0  0  0  0  0  0  0
  -32.8868  -23.0396  -13.5221 N   0  0  0  0  0  0  0  0  0  0  0  0
  -35.1012  -12.5523   -7.7282 C   0  0  0  0  0  0  0  0  0  0  0  0
  -32.7226  -20.4304   -1.9319 O   0  0  0  0  0  0  0  0  0  0  0  0
  -35.7949  -11.3554   -7.5401 O   0  0  0  0  0  0  0  0  0  0  0  0
  -34.4997  -12.8190   -9.0036 C   0  0  0  0  0  0  0  0  0  0  0  0
  -32.9124  -20.2188   -4.1904 O   0  0  0  0  0  0  0  0  0  0  0  0
  2  7  1  0
  2 11  1  0
  2 14  2  0
  3  7  1  0
  3  9  1  0
  3 12  2  0
  9 11  1  0
 11 13  2  3
  1  7  2  0
  1  8  1  0
  4  9  2  0
  4 10  1  0
  6 14  1  0
  6  8  2  0
  5 12  1  0
  5 10  2  0
 13 15  1  0
  6 16  1  0
 15 17  1  0
 16 18  1  0
 17 19  2  0
 15 20  2  0
 17 21  1  0
 19 22  1  0
 22 23  1  0
 21 24  2  0
 20 25  1  0
 16 26  1  0
 23 27  1  0
 18 28  1  0
 27 29  1  0
 19 30  1  0
 25 30  2  0
 29 30  1  0
 18 31  1  0
 22 32  2  0
 24 32  1  0
 24 33  1  0
 33 34  1  0
 27 35  2  0
 28 36  2  0
 29 37  2  0
 26 38  1  0
 28 38  1  0
 35 39  1  0
 34 40  1  0
 39 41  1  0
 37 42  1  0
 39 42  2  0
 34 43  2  0
M  END
$$$$
