
     RDKit          3D

 43 49  0  0  0  0  0  0  0  0999 V2000
  -28.1100  -21.1250  -11.7830 C   0  0  0  0  0  0  0  0  0  0  0  0
  -29.1380  -20.1340   -9.8150 C   0  0  0  0  0  0  0  0  0  0  0  0
  -26.8640  -19.6120  -10.1060 C   0  0  0  0  0  0  0  0  0  0  0  0
  -26.3470  -18.1740   -8.1970 C   0  0  0  0  0  0  0  0  0  0  0  0
  -24.6510  -18.7420   -9.8540 C   0  0  0  0  0  0  0  0  0  0  0  0
  -30.4600  -21.5050  -11.2460 C   0  0  0  0  0  0  0  0  0  0  0  0
  -28.0100  -20.3360  -10.6490 C   0  0  0  0  0  0  0  0  0  0  0  0
  -29.3460  -21.7100  -12.0780 C   0  0  0  0  0  0  0  0  0  0  0  0
  -27.2470  -18.9400   -8.9190 C   0  0  0  0  0  0  0  0  0  0  0  0
  -25.0380  -18.0800   -8.6770 C   0  0  0  0  0  0  0  0  0  0  0  0
  -28.6770  -19.2570   -8.7170 C   0  0  0  0  0  0  0  0  0  0  0  0
  -25.5650  -19.5150  -10.5780 C   0  0  0  0  0  0  0  0  0  0  0  0
  -29.5470  -18.7540   -7.5500 C   0  0  0  0  0  0  0  0  0  0  0  0
  -30.3630  -20.7110  -10.1010 C   0  0  0  0  0  0  0  0  0  0  0  0
  -30.2682  -17.6131   -7.7884 C   0  0  0  0  0  0  0  0  0  0  0  0
  -31.6351  -22.1828  -11.6616 C   0  0  0  0  0  0  0  0  0  0  0  0
  -31.0673  -17.2422   -6.6095 C   0  0  0  0  0  0  0  0  0  0  0  0
  -30.8352  -17.6300   -5.4844 C   0  0  0  0  0  0  0  0  0  0  0  0
  -31.8425  -17.5181   -4.4068 C   0  0  0  0  0  0  0  0  0  0  0  0
  -32.1307  -16.5826   -6.6226 C   0  0  0  0  0  0  0  0  0  0  0  0
  -31.6243  -18.1297   -3.1096 C   0  0  0  0  0  0  0  0  0  0  0  0
  -32.0763  -22.3605  -12.7922 O   0  0  0  0  0  0  0  0  0  0  0  0
  -30.9718  -17.4917   -2.1840 O   0  0  0  0  0  0  0  0  0  0  0  0
  -32.5117  -15.8566   -8.0492 C   0  0  0  0  0  0  0  0  0  0  0  0
  -32.8162  -21.4357  -10.9214 O   0  0  0  0  0  0  0  0  0  0  0  0
  -33.5668  -20.5980  -11.5867 C   0  0  0  0  0  0  0  0  0  0  0  0
  -33.4618  -20.7939  -13.0257 C   0  0  0  0  0  0  0  0  0  0  0  0
  -32.2308  -19.3618   -2.8070 C   0  0  0  0  0  0  0  0  0  0  0  0
  -30.8106  -17.1351   -9.0755 C   0  0  0  0  0  0  0  0  0  0  0  0
  -34.4080  -19.8209  -13.7991 C   0  0  0  0  0  0  0  0  0  0  0  0
  -31.8014  -16.2069   -9.1686 C   0  0  0  0  0  0  0  0  0  0  0  0
  -35.1571  -18.8089  -13.2363 C   0  0  0  0  0  0  0  0  0  0  0  0
  -32.6127  -20.3002   -3.8189 O   0  0  0  0  0  0  0  0  0  0  0  0
  -34.4748  -19.6475  -11.1379 C   0  0  0  0  0  0  0  0  0  0  0  0
  -32.7557  -21.6610  -13.7187 C   0  0  0  0  0  0  0  0  0  0  0  0
  -32.6524  -21.8925  -14.9177 O   0  0  0  0  0  0  0  0  0  0  0  0
  -35.2166  -18.7884  -11.8556 C   0  0  0  0  0  0  0  0  0  0  0  0
  -32.9192  -16.7424   -4.8798 C   0  0  0  0  0  0  0  0  0  0  0  0
  -33.8963  -16.4570   -3.7136 C   0  0  0  0  0  0  0  0  0  0  0  0
  -32.1889  -19.8431   -1.6071 O   0  0  0  0  0  0  0  0  0  0  0  0
  -33.0720  -16.1995   -5.9464 C   0  0  0  0  0  0  0  0  0  0  0  0
  -34.0720  -15.3400   -3.1919 O   0  0  0  0  0  0  0  0  0  0  0  0
  -34.8377  -17.3921   -3.3768 O   0  0  0  0  0  0  0  0  0  0  0  0
  2  7  1  0
  2 11  1  0
  2 14  2  0
  3  7  1  0
  3  9  1  0
  3 12  2  0
  9 11  1  0
 11 13  2  3
  1  7  2  0
  1  8  1  0
  4  9  2  0
  4 10  1  0
  6 14  1  0
  6  8  2  0
  5 12  1  0
  5 10  2  0
 13 15  1  0
  6 16  1  0
 15 17  1  0
 17 18  1  0
 18 19  2  0
 17 20  2  0
 19 21  1  0
 16 22  1  0
 21 23  2  0
 20 24  1  0
 16 25  1  0
 25 26  1  0
 26 27  2  0
 21 28  1  0
 15 29  2  0
 27 30  1  0
 24 31  2  0
 29 31  1  0
 30 32  2  0
 28 33  2  0
 26 34  1  0
 22 35  1  0
 27 35  1  0
 35 36  2  0
 32 37  1  0
 34 37  2  0
 19 38  1  0
 38 39  1  0
 28 40  1  0
 20 41  1  0
 38 41  2  0
 39 42  2  0
 39 43  1  0
M  END
$$$$
