
     RDKit          3D

 44 50  0  0  0  0  0  0  0  0999 V2000
  -28.1100  -21.1250  -11.7830 C   0  0  0  0  0  0  0  0  0  0  0  0
  -29.1380  -20.1340   -9.8150 C   0  0  0  0  0  0  0  0  0  0  0  0
  -26.8640  -19.6120  -10.1060 C   0  0  0  0  0  0  0  0  0  0  0  0
  -26.3470  -18.1740   -8.1970 C   0  0  0  0  0  0  0  0  0  0  0  0
  -24.6510  -18.7420   -9.8540 C   0  0  0  0  0  0  0  0  0  0  0  0
  -30.4600  -21.5050  -11.2460 C   0  0  0  0  0  0  0  0  0  0  0  0
  -28.0100  -20.3360  -10.6490 C   0  0  0  0  0  0  0  0  0  0  0  0
  -29.3460  -21.7100  -12.0780 C   0  0  0  0  0  0  0  0  0  0  0  0
  -27.2470  -18.9400   -8.9190 C   0  0  0  0  0  0  0  0  0  0  0  0
  -25.0380  -18.0800   -8.6770 C   0  0  0  0  0  0  0  0  0  0  0  0
  -28.6770  -19.2570   -8.7170 C   0  0  0  0  0  0  0  0  0  0  0  0
  -25.5650  -19.5150  -10.5780 C   0  0  0  0  0  0  0  0  0  0  0  0
  -29.5470  -18.7540   -7.5500 C   0  0  0  0  0  0  0  0  0  0  0  0
  -30.3630  -20.7110  -10.1010 C   0  0  0  0  0  0  0  0  0  0  0  0
  -30.2682  -17.6131   -7.7884 C   0  0  0  0  0  0  0  0  0  0  0  0
  -31.6351  -22.1828  -11.6616 C   0  0  0  0  0  0  0  0  0  0  0  0
  -31.0673  -17.2422   -6.6095 C   0  0  0  0  0  0  0  0  0  0  0  0
  -30.8352  -17.6300   -5.4844 C   0  0  0  0  0  0  0  0  0  0  0  0
  -31.8425  -17.5181   -4.4068 C   0  0  0  0  0  0  0  0  0  0  0  0
  -32.1307  -16.5826   -6.6226 C   0  0  0  0  0  0  0  0  0  0  0  0
  -31.6243  -18.1297   -3.1096 C   0  0  0  0  0  0  0  0  0  0  0  0
  -32.0763  -22.3605  -12.7922 O   0  0  0  0  0  0  0  0  0  0  0  0
  -30.9718  -17.4917   -2.1840 O   0  0  0  0  0  0  0  0  0  0  0  0
  -32.5117  -15.8566   -8.0492 C   0  0  0  0  0  0  0  0  0  0  0  0
  -32.8162  -21.4357  -10.9214 O   0  0  0  0  0  0  0  0  0  0  0  0
  -33.5668  -20.5980  -11.5867 C   0  0  0  0  0  0  0  0  0  0  0  0
  -33.4618  -20.7939  -13.0257 C   0  0  0  0  0  0  0  0  0  0  0  0
  -32.9237  -21.8861  -13.5897 C   0  0  0  0  0  0  0  0  0  0  0  0
  -32.2302  -19.3626   -2.8077 C   0  0  0  0  0  0  0  0  0  0  0  0
  -34.2623  -19.7305  -13.7568 O   0  0  0  0  0  0  0  0  0  0  0  0
  -33.5684  -15.0987   -8.1004 O   0  0  0  0  0  0  0  0  0  0  0  0
  -31.6220  -16.0021   -9.0396 N   0  0  0  0  0  0  0  0  0  0  0  0
  -32.9807  -16.9255   -4.6781 C   0  0  0  0  0  0  0  0  0  0  0  0
  -32.4051  -19.6842   -1.5759 O   0  0  0  0  0  0  0  0  0  0  0  0
  -31.8681  -15.3531  -10.2297 C   0  0  0  0  0  0  0  0  0  0  0  0
  -34.0745  -19.3990  -11.1423 C   0  0  0  0  0  0  0  0  0  0  0  0
  -33.2285  -16.2100   -5.8418 C   0  0  0  0  0  0  0  0  0  0  0  0
  -34.7128  -18.5280  -12.0360 C   0  0  0  0  0  0  0  0  0  0  0  0
  -34.7044  -18.8026  -13.0998 C   0  0  0  0  0  0  0  0  0  0  0  0
  -34.0619  -19.2265   -9.7839 O   0  0  0  0  0  0  0  0  0  0  0  0
  -32.4900  -20.2619   -3.8084 O   0  0  0  0  0  0  0  0  0  0  0  0
  -31.9511  -23.4784  -10.7892 F   0  0  0  0  0  0  0  0  0  0  0  0
  -32.8258  -21.8351  -14.9261 O   0  0  0  0  0  0  0  0  0  0  0  0
  -30.6108  -16.9285   -8.9439 C   0  0  0  0  0  0  0  0  0  0  0  0
  2  7  1  0
  2 11  1  0
  2 14  2  0
  3  7  1  0
  3  9  1  0
  3 12  2  0
  9 11  1  0
 11 13  2  3
  1  7  2  0
  1  8  1  0
  4  9  2  0
  4 10  1  0
  6 14  1  0
  6  8  2  0
  5 12  1  0
  5 10  2  0
 13 15  1  0
  6 16  1  0
 15 17  1  0
 17 18  1  0
 18 19  2  0
 17 20  2  0
 19 21  1  0
 16 22  1  0
 21 23  2  0
 20 24  1  0
 16 25  1  0
 25 26  1  0
 26 27  2  0
 22 28  1  0
 27 28  1  0
 21 29  1  0
 27 30  1  0
 24 31  2  0
 24 32  1  0
 19 33  1  0
 29 34  2  0
 32 35  1  0
 26 36  1  0
 20 37  1  0
 33 37  2  0
 36 38  1  0
 30 39  1  0
 38 39  2  0
 36 40  1  0
 29 41  1  0
 16 42  1  0
 28 43  2  0
 15 44  2  0
 32 44  1  0
M  END
$$$$
