
     RDKit          3D

 44 50  0  0  0  0  0  0  0  0999 V2000
  -28.1100  -21.1250  -11.7830 C   0  0  0  0  0  0  0  0  0  0  0  0
  -29.1380  -20.1340   -9.8150 C   0  0  0  0  0  0  0  0  0  0  0  0
  -26.8640  -19.6120  -10.1060 C   0  0  0  0  0  0  0  0  0  0  0  0
  -26.3470  -18.1740   -8.1970 C   0  0  0  0  0  0  0  0  0  0  0  0
  -24.6510  -18.7420   -9.8540 C   0  0  0  0  0  0  0  0  0  0  0  0
  -30.4600  -21.5050  -11.2460 C   0  0  0  0  0  0  0  0  0  0  0  0
  -28.0100  -20.3360  -10.6490 C   0  0  0  0  0  0  0  0  0  0  0  0
  -29.3460  -21.7100  -12.0780 C   0  0  0  0  0  0  0  0  0  0  0  0
  -27.2470  -18.9400   -8.9190 C   0  0  0  0  0  0  0  0  0  0  0  0
  -25.0380  -18.0800   -8.6770 C   0  0  0  0  0  0  0  0  0  0  0  0
  -28.6770  -19.2570   -8.7170 C   0  0  0  0  0  0  0  0  0  0  0  0
  -25.5650  -19.5150  -10.5780 C   0  0  0  0  0  0  0  0  0  0  0  0
  -29.5470  -18.7540   -7.5500 C   0  0  0  0  0  0  0  0  0  0  0  0
  -30.3630  -20.7110  -10.1010 C   0  0  0  0  0  0  0  0  0  0  0  0
  -30.2682  -17.6131   -7.7884 C   0  0  0  0  0  0  0  0  0  0  0  0
  -31.8870  -22.2541  -11.5313 C   0  0  0  0  0  0  0  0  0  0  0  0
  -31.0748  -17.2494   -6.6123 C   0  0  0  0  0  0  0  0  0  0  0  0
  -32.7363  -21.5240  -12.0456 N   0  0  0  0  0  0  0  0  0  0  0  0
  -32.2123  -16.5880   -6.7015 C   0  0  0  0  0  0  0  0  0  0  0  0
  -30.4388  -16.8913   -8.9113 C   0  0  0  0  0  0  0  0  0  0  0  0
  -30.8655  -17.8672   -5.3205 C   0  0  0  0  0  0  0  0  0  0  0  0
  -33.2233  -16.3508   -5.7356 C   0  0  0  0  0  0  0  0  0  0  0  0
  -34.3840  -15.6550   -5.9943 O   0  0  0  0  0  0  0  0  0  0  0  0
  -31.7328  -17.7891   -4.2474 C   0  0  0  0  0  0  0  0  0  0  0  0
  -31.5306  -15.9507   -9.0333 C   0  0  0  0  0  0  0  0  0  0  0  0
  -33.1089  -17.0939   -4.6040 C   0  0  0  0  0  0  0  0  0  0  0  0
  -31.9745  -23.5067  -11.4675 N   0  0  0  0  0  0  0  0  0  0  0  0
  -31.6280  -18.4571   -3.0251 C   0  0  0  0  0  0  0  0  0  0  0  0
  -31.6396  -15.2492  -10.2489 O   0  0  0  0  0  0  0  0  0  0  0  0
  -34.4366  -15.1159   -7.2334 C   0  0  0  0  0  0  0  0  0  0  0  0
  -32.3561  -15.9026  -11.1589 C   0  0  0  0  0  0  0  0  0  0  0  0
  -30.7641  -17.8870   -2.2312 C   0  0  0  0  0  0  0  0  0  0  0  0
  -32.4021  -15.7639   -7.9880 C   0  0  0  0  0  0  0  0  0  0  0  0
  -30.0315  -16.6955   -2.4147 O   0  0  0  0  0  0  0  0  0  0  0  0
  -33.5087  -15.0030   -8.1713 C   0  0  0  0  0  0  0  0  0  0  0  0
  -32.2506  -19.6535   -2.7348 C   0  0  0  0  0  0  0  0  0  0  0  0
  -30.6606  -18.4668   -0.8874 C   0  0  0  0  0  0  0  0  0  0  0  0
  -32.9397  -20.4690   -3.7417 O   0  0  0  0  0  0  0  0  0  0  0  0
  -35.2690  -13.9026   -6.8428 C   0  0  0  0  0  0  0  0  0  0  0  0
  -34.8622  -12.7223   -7.2639 O   0  0  0  0  0  0  0  0  0  0  0  0
  -32.1462  -20.3457   -1.5401 C   0  0  0  0  0  0  0  0  0  0  0  0
  -29.9429  -17.7799    0.1193 O   0  0  0  0  0  0  0  0  0  0  0  0
  -31.3576  -19.6199   -0.5252 C   0  0  0  0  0  0  0  0  0  0  0  0
  -36.2331  -13.9927   -6.0937 O   0  0  0  0  0  0  0  0  0  0  0  0
  2  7  1  0
  2 11  1  0
  2 14  2  0
  3  7  1  0
  3  9  1  0
  3 12  2  0
  9 11  1  0
 11 13  2  3
  1  7  2  0
  1  8  1  0
  4  9  2  0
  4 10  1  0
  6 14  1  0
  6  8  2  0
  5 12  1  0
  5 10  2  0
 13 15  1  0
  6 16  1  0
 15 17  1  0
 16 18  1  0
 17 19  2  0
 15 20  2  0
 17 21  1  0
 19 22  1  0
 22 23  1  0
 21 24  2  0
 20 25  1  0
 22 26  2  0
 24 26  1  0
 16 27  2  0
 24 28  1  0
 25 29  1  0
 23 30  1  0
 29 31  1  0
 28 32  2  0
 19 33  1  0
 25 33  2  0
 32 34  1  0
 30 35  1  0
 33 35  1  0
 28 36  1  0
 32 37  1  0
 36 38  1  0
 30 39  1  0
 39 40  2  0
 36 41  2  0
 37 42  1  0
 37 43  2  0
 41 43  1  0
 39 44  1  0
M  END
$$$$
