
     RDKit          3D

 46 52  0  0  0  0  0  0  0  0999 V2000
  -28.1100  -21.1250  -11.7830 C   0  0  0  0  0  0  0  0  0  0  0  0
  -29.1380  -20.1340   -9.8150 C   0  0  0  0  0  0  0  0  0  0  0  0
  -26.8640  -19.6120  -10.1060 C   0  0  0  0  0  0  0  0  0  0  0  0
  -26.3470  -18.1740   -8.1970 C   0  0  0  0  0  0  0  0  0  0  0  0
  -24.6510  -18.7420   -9.8540 C   0  0  0  0  0  0  0  0  0  0  0  0
  -30.4600  -21.5050  -11.2460 C   0  0  0  0  0  0  0  0  0  0  0  0
  -28.0100  -20.3360  -10.6490 C   0  0  0  0  0  0  0  0  0  0  0  0
  -29.3460  -21.7100  -12.0780 C   0  0  0  0  0  0  0  0  0  0  0  0
  -27.2470  -18.9400   -8.9190 C   0  0  0  0  0  0  0  0  0  0  0  0
  -25.0380  -18.0800   -8.6770 C   0  0  0  0  0  0  0  0  0  0  0  0
  -28.6770  -19.2570   -8.7170 C   0  0  0  0  0  0  0  0  0  0  0  0
  -25.5650  -19.5150  -10.5780 C   0  0  0  0  0  0  0  0  0  0  0  0
  -29.5470  -18.7540   -7.5500 C   0  0  0  0  0  0  0  0  0  0  0  0
  -30.3630  -20.7110  -10.1010 C   0  0  0  0  0  0  0  0  0  0  0  0
  -31.6372  -22.1895  -11.6585 N   0  0  0  0  0  0  0  0  0  0  0  0
  -31.6596  -23.1099  -12.5883 C   0  0  0  0  0  0  0  0  0  0  0  0
  -30.2377  -17.5894   -7.7821 C   0  0  0  0  0  0  0  0  0  0  0  0
  -31.0309  -17.2219   -6.5960 C   0  0  0  0  0  0  0  0  0  0  0  0
  -32.1239  -22.5265  -13.8248 C   0  0  0  0  0  0  0  0  0  0  0  0
  -30.7865  -17.6153   -5.4577 C   0  0  0  0  0  0  0  0  0  0  0  0
  -31.6712  -17.3381   -4.2831 C   0  0  0  0  0  0  0  0  0  0  0  0
  -32.1182  -16.2558   -6.7005 C   0  0  0  0  0  0  0  0  0  0  0  0
  -32.3617  -15.6938   -8.0459 C   0  0  0  0  0  0  0  0  0  0  0  0
  -31.5581  -18.0751   -3.0983 C   0  0  0  0  0  0  0  0  0  0  0  0
  -30.9701  -17.5335   -2.0273 O   0  0  0  0  0  0  0  0  0  0  0  0
  -32.8996  -16.7232   -4.4455 C   0  0  0  0  0  0  0  0  0  0  0  0
  -32.8664  -21.3003  -13.6640 C   0  0  0  0  0  0  0  0  0  0  0  0
  -32.7800  -20.8230  -12.4429 N   0  0  0  0  0  0  0  0  0  0  0  0
  -32.7244  -21.3392  -11.4656 C   0  0  0  0  0  0  0  0  0  0  0  0
  -33.2604  -14.8550   -8.2228 O   0  0  0  0  0  0  0  0  0  0  0  0
  -33.0888  -16.0336   -5.7654 C   0  0  0  0  0  0  0  0  0  0  0  0
  -31.6462  -16.1257   -9.1416 N   0  0  0  0  0  0  0  0  0  0  0  0
  -32.0149  -19.4400   -2.8607 C   0  0  0  0  0  0  0  0  0  0  0  0
  -32.5596  -20.3461   -3.8433 C   0  0  0  0  0  0  0  0  0  0  0  0
  -31.1176  -18.5333   -0.9931 C   0  0  0  0  0  0  0  0  0  0  0  0
  -30.8774  -18.1702    0.3259 C   0  0  0  0  0  0  0  0  0  0  0  0
  -32.9678  -21.3656   -3.7401 O   0  0  0  0  0  0  0  0  0  0  0  0
  -30.3920  -16.8731   -8.9272 C   0  0  0  0  0  0  0  0  0  0  0  0
  -33.5503  -19.3930  -12.3128 C   0  0  0  0  0  0  0  0  0  0  0  0
  -31.9255  -15.3600  -10.3782 C   0  0  0  0  0  0  0  0  0  0  0  0
  -33.3718  -21.2753  -10.4047 O   0  0  0  0  0  0  0  0  0  0  0  0
  -33.3051  -19.8094   -4.9031 O   0  0  0  0  0  0  0  0  0  0  0  0
  -30.8819  -14.8086  -10.9717 C   0  0  0  0  0  0  0  0  0  0  0  0
  -31.8376  -19.5928   -1.4617 C   0  0  0  0  0  0  0  0  0  0  0  0
  -32.8878  -15.6406  -10.9681 O   0  0  0  0  0  0  0  0  0  0  0  0
  -32.6751  -18.2890  -12.6442 C   0  0  0  0  0  0  0  0  0  0  0  0
  2  7  1  0
  2 11  1  0
  2 14  2  0
  3  7  1  0
  3  9  1  0
  3 12  2  0
  9 11  1  0
 11 13  2  3
  1  7  2  0
  1  8  1  0
  4  9  2  0
  4 10  1  0
  6 14  1  0
  6  8  2  0
  5 12  1  0
  5 10  2  0
  6 15  1  0
 15 16  1  0
 13 17  1  0
 17 18  1  0
 16 19  1  0
 18 20  2  0
 20 21  1  0
 18 22  1  0
 22 23  1  0
 21 24  1  0
 24 25  1  0
 21 26  2  0
 19 27  1  0
 27 28  1  0
 15 29  1  0
 28 29  1  0
 23 30  2  0
 22 31  2  0
 26 31  1  0
 23 32  1  0
 24 33  2  0
 33 34  1  0
 25 35  1  0
 35 36  1  0
 34 37  2  0
 17 38  1  0
 32 38  1  0
 28 39  1  0
 32 40  1  0
 29 41  2  0
 34 42  1  0
 40 43  1  0
 33 44  1  0
 35 44  2  0
 40 45  2  0
 39 46  1  0
M  END
$$$$
