
     RDKit          3D

 28 32  0  0  0  0  0  0  0  0999 V2000
  -28.1100  -21.1250  -11.7830 C   0  0  0  0  0  0  0  0  0  0  0  0
  -29.1380  -20.1340   -9.8150 C   0  0  0  0  0  0  0  0  0  0  0  0
  -26.8640  -19.6120  -10.1060 C   0  0  0  0  0  0  0  0  0  0  0  0
  -26.3470  -18.1740   -8.1970 C   0  0  0  0  0  0  0  0  0  0  0  0
  -24.6510  -18.7420   -9.8540 C   0  0  0  0  0  0  0  0  0  0  0  0
  -30.4600  -21.5050  -11.2460 C   0  0  0  0  0  0  0  0  0  0  0  0
  -28.0100  -20.3360  -10.6490 C   0  0  0  0  0  0  0  0  0  0  0  0
  -29.3460  -21.7100  -12.0780 C   0  0  0  0  0  0  0  0  0  0  0  0
  -27.2470  -18.9400   -8.9190 C   0  0  0  0  0  0  0  0  0  0  0  0
  -25.0380  -18.0800   -8.6770 C   0  0  0  0  0  0  0  0  0  0  0  0
  -28.6770  -19.2570   -8.7170 C   0  0  0  0  0  0  0  0  0  0  0  0
  -25.5650  -19.5150  -10.5780 C   0  0  0  0  0  0  0  0  0  0  0  0
  -29.5470  -18.7540   -7.5500 C   0  0  0  0  0  0  0  0  0  0  0  0
  -30.3630  -20.7110  -10.1010 C   0  0  0  0  0  0  0  0  0  0  0  0
  -30.2682  -17.6131   -7.7884 C   0  0  0  0  0  0  0  0  0  0  0  0
  -31.6351  -22.1828  -11.6616 N   0  0  0  0  0  0  0  0  0  0  0  0
  -31.6590  -23.1165  -12.5874 C   0  0  0  0  0  0  0  0  0  0  0  0
  -32.8551  -22.7761  -13.4212 C   0  0  0  0  0  0  0  0  0  0  0  0
  -31.0622  -17.2462   -6.6023 C   0  0  0  0  0  0  0  0  0  0  0  0
  -32.2058  -16.6909   -6.5930 C   0  0  0  0  0  0  0  0  0  0  0  0
  -30.4525  -17.2514   -5.2589 C   0  0  0  0  0  0  0  0  0  0  0  0
  -32.9139  -16.3100   -5.4219 C   0  0  0  0  0  0  0  0  0  0  0  0
  -32.7104  -21.7338  -14.2535 O   0  0  0  0  0  0  0  0  0  0  0  0
  -32.9005  -21.9031  -11.3693 C   0  0  0  0  0  0  0  0  0  0  0  0
  -32.3737  -16.4950   -4.2012 C   0  0  0  0  0  0  0  0  0  0  0  0
  -31.1655  -17.0789   -3.9743 C   0  0  0  0  0  0  0  0  0  0  0  0
  -33.8545  -22.2992  -12.3928 C   0  0  0  0  0  0  0  0  0  0  0  0
  -34.5885  -21.2428  -12.8076 O   0  0  0  0  0  0  0  0  0  0  0  0
  2  7  1  0
  2 11  1  0
  2 14  2  0
  3  7  1  0
  3  9  1  0
  3 12  2  0
  9 11  1  0
 11 13  2  3
  1  7  2  0
  1  8  1  0
  4  9  2  0
  4 10  1  0
  6 14  1  0
  6  8  2  0
  5 12  1  0
  5 10  2  0
 13 15  1  0
  6 16  1  0
 16 17  1  0
 17 18  1  0
 15 19  1  0
 19 20  2  0
 19 21  1  0
 20 22  1  0
 18 23  1  0
 16 24  1  0
 22 25  2  0
 21 26  2  0
 25 26  1  0
 18 27  1  0
 24 27  1  0
 27 28  1  0
M  END
$$$$
