
     RDKit          3D

 47 53  0  0  0  0  0  0  0  0999 V2000
  -28.1100  -21.1250  -11.7830 C   0  0  0  0  0  0  0  0  0  0  0  0
  -29.1380  -20.1340   -9.8150 C   0  0  0  0  0  0  0  0  0  0  0  0
  -26.8640  -19.6120  -10.1060 C   0  0  0  0  0  0  0  0  0  0  0  0
  -26.3470  -18.1740   -8.1970 C   0  0  0  0  0  0  0  0  0  0  0  0
  -24.6510  -18.7420   -9.8540 C   0  0  0  0  0  0  0  0  0  0  0  0
  -30.4600  -21.5050  -11.2460 C   0  0  0  0  0  0  0  0  0  0  0  0
  -28.0100  -20.3360  -10.6490 C   0  0  0  0  0  0  0  0  0  0  0  0
  -29.3460  -21.7100  -12.0780 C   0  0  0  0  0  0  0  0  0  0  0  0
  -27.2470  -18.9400   -8.9190 C   0  0  0  0  0  0  0  0  0  0  0  0
  -25.0380  -18.0800   -8.6770 C   0  0  0  0  0  0  0  0  0  0  0  0
  -28.6770  -19.2570   -8.7170 C   0  0  0  0  0  0  0  0  0  0  0  0
  -25.5650  -19.5150  -10.5780 C   0  0  0  0  0  0  0  0  0  0  0  0
  -29.5470  -18.7540   -7.5500 C   0  0  0  0  0  0  0  0  0  0  0  0
  -30.3630  -20.7110  -10.1010 C   0  0  0  0  0  0  0  0  0  0  0  0
  -30.2682  -17.6131   -7.7884 C   0  0  0  0  0  0  0  0  0  0  0  0
  -31.6351  -22.1828  -11.6616 C   0  0  0  0  0  0  0  0  0  0  0  0
  -31.0673  -17.2422   -6.6095 C   0  0  0  0  0  0  0  0  0  0  0  0
  -30.8352  -17.6300   -5.4844 C   0  0  0  0  0  0  0  0  0  0  0  0
  -31.8425  -17.5181   -4.4068 C   0  0  0  0  0  0  0  0  0  0  0  0
  -32.1307  -16.5826   -6.6226 C   0  0  0  0  0  0  0  0  0  0  0  0
  -31.6243  -18.1297   -3.1096 C   0  0  0  0  0  0  0  0  0  0  0  0
  -32.0763  -22.3605  -12.7922 O   0  0  0  0  0  0  0  0  0  0  0  0
  -30.9718  -17.4917   -2.1840 O   0  0  0  0  0  0  0  0  0  0  0  0
  -32.5117  -15.8566   -8.0492 C   0  0  0  0  0  0  0  0  0  0  0  0
  -32.8162  -21.4357  -10.9214 O   0  0  0  0  0  0  0  0  0  0  0  0
  -33.5668  -20.5980  -11.5867 C   0  0  0  0  0  0  0  0  0  0  0  0
  -33.4618  -20.7939  -13.0257 C   0  0  0  0  0  0  0  0  0  0  0  0
  -32.9237  -21.8861  -13.5897 C   0  0  0  0  0  0  0  0  0  0  0  0
  -32.2302  -19.3626   -2.8077 C   0  0  0  0  0  0  0  0  0  0  0  0
  -34.2623  -19.7305  -13.7568 O   0  0  0  0  0  0  0  0  0  0  0  0
  -30.7976  -17.1302   -9.0780 C   0  0  0  0  0  0  0  0  0  0  0  0
  -34.4497  -19.9542  -10.9418 C   0  0  0  0  0  0  0  0  0  0  0  0
  -29.9727  -17.3337  -10.2231 O   0  0  0  0  0  0  0  0  0  0  0  0
  -32.8782  -16.1853   -5.4900 C   0  0  0  0  0  0  0  0  0  0  0  0
  -34.0802  -15.2389   -5.7369 O   0  0  0  0  0  0  0  0  0  0  0  0
  -32.9201  -16.7662   -4.4703 C   0  0  0  0  0  0  0  0  0  0  0  0
  -32.5171  -19.6936   -1.5691 O   0  0  0  0  0  0  0  0  0  0  0  0
  -33.0115  -22.2946  -14.8224 O   0  0  0  0  0  0  0  0  0  0  0  0
  -31.6864  -23.5448  -10.8763 C   0  0  0  0  0  0  0  0  0  0  0  0
  -32.4531  -20.2693   -3.8268 N   0  0  0  0  0  0  0  0  0  0  0  0
  -34.9669  -18.9461  -12.9377 C   0  0  0  0  0  0  0  0  0  0  0  0
  -35.0708  -18.8444  -11.6492 C   0  0  0  0  0  0  0  0  0  0  0  0
  -31.8842  -16.1607   -9.0774 C   0  0  0  0  0  0  0  0  0  0  0  0
  -35.8640  -17.8324  -11.1057 C   0  0  0  0  0  0  0  0  0  0  0  0
  -34.6030  -19.9842   -9.7148 O   0  0  0  0  0  0  0  0  0  0  0  0
  -35.9869  -17.7632   -9.7454 O   0  0  0  0  0  0  0  0  0  0  0  0
  -36.0940  -16.6794  -11.7994 O   0  0  0  0  0  0  0  0  0  0  0  0
  2  7  1  0
  2 11  1  0
  2 14  2  0
  3  7  1  0
  3  9  1  0
  3 12  2  0
  9 11  1  0
 11 13  2  3
  1  7  2  0
  1  8  1  0
  4  9  2  0
  4 10  1  0
  6 14  1  0
  6  8  2  0
  5 12  1  0
  5 10  2  0
 13 15  1  0
  6 16  1  0
 15 17  1  0
 17 18  1  0
 18 19  2  0
 17 20  2  0
 19 21  1  0
 16 22  1  0
 21 23  2  0
 20 24  1  0
 16 25  1  0
 25 26  1  0
 26 27  2  0
 22 28  1  0
 27 28  1  0
 21 29  1  0
 27 30  1  0
 15 31  2  0
 26 32  1  0
 31 33  1  0
 20 34  1  0
 34 35  1  0
 19 36  1  0
 34 36  2  0
 29 37  2  0
 28 38  2  0
 16 39  1  0
 29 40  1  0
 30 41  1  0
 32 42  1  0
 41 42  2  0
 24 43  2  0
 31 43  1  0
 42 44  1  0
 32 45  2  0
 44 46  1  0
 44 47  2  0
M  END
$$$$
