
     RDKit          3D

 48 54  0  0  0  0  0  0  0  0999 V2000
  -28.1100  -21.1250  -11.7830 C   0  0  0  0  0  0  0  0  0  0  0  0
  -29.1380  -20.1340   -9.8150 C   0  0  0  0  0  0  0  0  0  0  0  0
  -26.8640  -19.6120  -10.1060 C   0  0  0  0  0  0  0  0  0  0  0  0
  -26.3470  -18.1740   -8.1970 C   0  0  0  0  0  0  0  0  0  0  0  0
  -24.6510  -18.7420   -9.8540 C   0  0  0  0  0  0  0  0  0  0  0  0
  -30.4600  -21.5050  -11.2460 C   0  0  0  0  0  0  0  0  0  0  0  0
  -28.0100  -20.3360  -10.6490 C   0  0  0  0  0  0  0  0  0  0  0  0
  -29.3460  -21.7100  -12.0780 C   0  0  0  0  0  0  0  0  0  0  0  0
  -27.2470  -18.9400   -8.9190 C   0  0  0  0  0  0  0  0  0  0  0  0
  -25.0380  -18.0800   -8.6770 C   0  0  0  0  0  0  0  0  0  0  0  0
  -28.6770  -19.2570   -8.7170 C   0  0  0  0  0  0  0  0  0  0  0  0
  -25.5650  -19.5150  -10.5780 C   0  0  0  0  0  0  0  0  0  0  0  0
  -29.5470  -18.7540   -7.5500 C   0  0  0  0  0  0  0  0  0  0  0  0
  -30.3630  -20.7110  -10.1010 C   0  0  0  0  0  0  0  0  0  0  0  0
  -31.6372  -22.1895  -11.6585 N   0  0  0  0  0  0  0  0  0  0  0  0
  -30.2571  -17.6003   -7.7868 C   0  0  0  0  0  0  0  0  0  0  0  0
  -31.0594  -17.2358   -6.6100 C   0  0  0  0  0  0  0  0  0  0  0  0
  -32.1858  -16.7350   -6.5482 C   0  0  0  0  0  0  0  0  0  0  0  0
  -30.4666  -16.8425   -8.5780 C   0  0  0  0  0  0  0  0  0  0  0  0
  -30.9060  -18.0473   -5.1963 C   0  0  0  0  0  0  0  0  0  0  0  0
  -31.6657  -23.1435  -12.5686 C   0  0  0  0  0  0  0  0  0  0  0  0
  -31.7940  -17.7755   -4.2400 C   0  0  0  0  0  0  0  0  0  0  0  0
  -33.2340  -16.6169   -5.7193 C   0  0  0  0  0  0  0  0  0  0  0  0
  -32.7521  -21.2022  -11.9255 C   0  0  0  0  0  0  0  0  0  0  0  0
  -34.3931  -15.8325   -5.9756 O   0  0  0  0  0  0  0  0  0  0  0  0
  -33.2098  -17.2356   -4.4846 C   0  0  0  0  0  0  0  0  0  0  0  0
  -33.1546  -20.7649  -12.9870 O   0  0  0  0  0  0  0  0  0  0  0  0
  -33.1935  -20.4638  -10.8726 O   0  0  0  0  0  0  0  0  0  0  0  0
  -33.7845  -19.5207  -13.2101 C   0  0  0  0  0  0  0  0  0  0  0  0
  -34.6658  -19.5273  -14.2459 C   0  0  0  0  0  0  0  0  0  0  0  0
  -33.1444  -18.4334  -12.9289 C   0  0  0  0  0  0  0  0  0  0  0  0
  -31.0921  -16.8965   -3.2458 C   0  0  0  0  0  0  0  0  0  0  0  0
  -30.5115  -15.8157   -3.4676 O   0  0  0  0  0  0  0  0  0  0  0  0
  -33.6320  -17.1449  -13.3736 C   0  0  0  0  0  0  0  0  0  0  0  0
  -32.3845  -15.7855   -7.8284 C   0  0  0  0  0  0  0  0  0  0  0  0
  -32.2471  -18.8060   -3.3223 N   0  0  0  0  0  0  0  0  0  0  0  0
  -31.1548  -17.3350   -2.0080 O   0  0  0  0  0  0  0  0  0  0  0  0
  -35.2496  -20.7736  -14.7235 O   0  0  0  0  0  0  0  0  0  0  0  0
  -31.8511  -18.7561   -2.0303 C   0  0  0  0  0  0  0  0  0  0  0  0
  -32.9593  -15.9300  -12.8010 C   0  0  0  0  0  0  0  0  0  0  0  0
  -35.2063  -18.3952  -14.7184 C   0  0  0  0  0  0  0  0  0  0  0  0
  -33.3840  -14.8596   -7.9685 O   0  0  0  0  0  0  0  0  0  0  0  0
  -36.2609  -18.3693  -15.6707 O   0  0  0  0  0  0  0  0  0  0  0  0
  -34.6666  -17.1141  -14.2486 C   0  0  0  0  0  0  0  0  0  0  0  0
  -32.8740  -20.0471   -3.7499 C   0  0  0  0  0  0  0  0  0  0  0  0
  -32.8927  -21.1210   -3.1595 O   0  0  0  0  0  0  0  0  0  0  0  0
  -33.5629  -19.8660   -4.9477 O   0  0  0  0  0  0  0  0  0  0  0  0
  -31.4107  -15.8723   -8.8528 C   0  0  0  0  0  0  0  0  0  0  0  0
  2  7  1  0
  2 11  1  0
  2 14  2  0
  3  7  1  0
  3  9  1  0
  3 12  2  0
  9 11  1  0
 11 13  2  3
  1  7  2  0
  1  8  1  0
  4  9  2  0
  4 10  1  0
  6 14  1  0
  6  8  2  0
  5 12  1  0
  5 10  2  0
  6 15  1  0
 13 16  1  0
 16 17  1  0
 17 18  2  0
 16 19  2  0
 17 20  1  0
 15 21  1  0
 20 22  1  0
 18 23  1  0
 15 24  1  0
 23 25  2  0
 22 26  1  0
 23 26  1  0
 24 27  1  0
 24 28  2  0
 27 29  1  0
 29 30  1  0
 29 31  2  0
 22 32  1  0
 32 33  2  0
 31 34  1  0
 18 35  1  0
 22 36  1  0
 32 37  1  0
 30 38  1  0
 36 39  1  0
 37 39  1  0
 34 40  1  0
 30 41  2  0
 35 42  1  0
 41 43  1  0
 34 44  2  0
 41 44  1  0
 36 45  1  0
 45 46  2  0
 45 47  1  0
 19 48  1  0
 35 48  2  0
M  END
$$$$
