
     RDKit          3D

 48 55  0  0  0  0  0  0  0  0999 V2000
  -28.1100  -21.1250  -11.7830 C   0  0  0  0  0  0  0  0  0  0  0  0
  -29.1380  -20.1340   -9.8150 C   0  0  0  0  0  0  0  0  0  0  0  0
  -26.8640  -19.6120  -10.1060 C   0  0  0  0  0  0  0  0  0  0  0  0
  -26.3470  -18.1740   -8.1970 C   0  0  0  0  0  0  0  0  0  0  0  0
  -24.6510  -18.7420   -9.8540 C   0  0  0  0  0  0  0  0  0  0  0  0
  -30.4600  -21.5050  -11.2460 C   0  0  0  0  0  0  0  0  0  0  0  0
  -28.0100  -20.3360  -10.6490 C   0  0  0  0  0  0  0  0  0  0  0  0
  -29.3460  -21.7100  -12.0780 C   0  0  0  0  0  0  0  0  0  0  0  0
  -27.2470  -18.9400   -8.9190 C   0  0  0  0  0  0  0  0  0  0  0  0
  -25.0380  -18.0800   -8.6770 C   0  0  0  0  0  0  0  0  0  0  0  0
  -28.6770  -19.2570   -8.7170 C   0  0  0  0  0  0  0  0  0  0  0  0
  -25.5650  -19.5150  -10.5780 C   0  0  0  0  0  0  0  0  0  0  0  0
  -29.5470  -18.7540   -7.5500 C   0  0  0  0  0  0  0  0  0  0  0  0
  -30.3630  -20.7110  -10.1010 C   0  0  0  0  0  0  0  0  0  0  0  0
  -30.2682  -17.6131   -7.7884 C   0  0  0  0  0  0  0  0  0  0  0  0
  -31.6351  -22.1828  -11.6616 C   0  0  0  0  0  0  0  0  0  0  0  0
  -31.0673  -17.2422   -6.6095 C   0  0  0  0  0  0  0  0  0  0  0  0
  -30.8352  -17.6300   -5.4844 C   0  0  0  0  0  0  0  0  0  0  0  0
  -31.8425  -17.5181   -4.4068 C   0  0  0  0  0  0  0  0  0  0  0  0
  -32.1307  -16.5826   -6.6226 C   0  0  0  0  0  0  0  0  0  0  0  0
  -31.6243  -18.1297   -3.1096 C   0  0  0  0  0  0  0  0  0  0  0  0
  -32.0763  -22.3605  -12.7922 O   0  0  0  0  0  0  0  0  0  0  0  0
  -30.9718  -17.4917   -2.1840 O   0  0  0  0  0  0  0  0  0  0  0  0
  -32.5117  -15.8566   -8.0492 C   0  0  0  0  0  0  0  0  0  0  0  0
  -32.8162  -21.4357  -10.9214 O   0  0  0  0  0  0  0  0  0  0  0  0
  -33.5668  -20.5980  -11.5867 C   0  0  0  0  0  0  0  0  0  0  0  0
  -33.4618  -20.7939  -13.0257 C   0  0  0  0  0  0  0  0  0  0  0  0
  -32.9237  -21.8861  -13.5897 C   0  0  0  0  0  0  0  0  0  0  0  0
  -32.2302  -19.3626   -2.8077 C   0  0  0  0  0  0  0  0  0  0  0  0
  -34.2623  -19.7305  -13.7568 O   0  0  0  0  0  0  0  0  0  0  0  0
  -33.5684  -15.0987   -8.1004 O   0  0  0  0  0  0  0  0  0  0  0  0
  -31.6220  -16.0021   -9.0396 N   0  0  0  0  0  0  0  0  0  0  0  0
  -32.9807  -16.9255   -4.6781 C   0  0  0  0  0  0  0  0  0  0  0  0
  -32.4051  -19.6842   -1.5759 O   0  0  0  0  0  0  0  0  0  0  0  0
  -31.8681  -15.3531  -10.2297 C   0  0  0  0  0  0  0  0  0  0  0  0
  -31.4748  -23.5390  -11.0297 C   0  0  0  0  0  0  0  0  0  0  0  0
  -34.4109  -19.9074  -10.9228 C   0  0  0  0  0  0  0  0  0  0  0  0
  -35.1311  -18.8411  -11.7071 C   0  0  0  0  0  0  0  0  0  0  0  0
  -33.2258  -16.2091   -5.8440 C   0  0  0  0  0  0  0  0  0  0  0  0
  -35.8315  -17.8860  -10.9991 C   0  0  0  0  0  0  0  0  0  0  0  0
  -36.8778  -17.1534  -11.5933 C   0  0  0  0  0  0  0  0  0  0  0  0
  -37.6364  -16.1694  -10.8907 O   0  0  0  0  0  0  0  0  0  0  0  0
  -35.1417  -18.7796  -13.1122 C   0  0  0  0  0  0  0  0  0  0  0  0
  -35.8841  -17.9198  -13.8637 C   0  0  0  0  0  0  0  0  0  0  0  0
  -32.4896  -20.2706   -3.8048 O   0  0  0  0  0  0  0  0  0  0  0  0
  -36.7410  -17.0065  -13.1520 C   0  0  0  0  0  0  0  0  0  0  0  0
  -33.1206  -22.1827  -14.8201 O   0  0  0  0  0  0  0  0  0  0  0  0
  -30.4687  -16.9089   -8.8852 C   0  0  0  0  0  0  0  0  0  0  0  0
  2  7  1  0
  2 11  1  0
  2 14  2  0
  3  7  1  0
  3  9  1  0
  3 12  2  0
  9 11  1  0
 11 13  2  3
  1  7  2  0
  1  8  1  0
  4  9  2  0
  4 10  1  0
  6 14  1  0
  6  8  2  0
  5 12  1  0
  5 10  2  0
 13 15  1  0
  6 16  1  0
 15 17  1  0
 17 18  1  0
 18 19  2  0
 17 20  2  0
 19 21  1  0
 16 22  1  0
 21 23  2  0
 20 24  1  0
 16 25  1  0
 25 26  1  0
 26 27  2  0
 22 28  1  0
 27 28  1  0
 21 29  1  0
 27 30  1  0
 24 31  2  0
 24 32  1  0
 19 33  1  0
 29 34  2  0
 32 35  1  0
 16 36  1  0
 26 37  1  0
 37 38  1  0
 20 39  1  0
 33 39  2  0
 38 40  2  0
 40 41  1  0
 41 42  1  0
 30 43  1  0
 38 43  1  0
 43 44  2  0
 29 45  1  0
 41 46  2  0
 44 46  1  0
 28 47  2  0
 15 48  2  0
 32 48  1  0
M  END
$$$$
