
     RDKit          3D

 48 55  0  0  0  0  0  0  0  0999 V2000
  -28.1100  -21.1250  -11.7830 C   0  0  0  0  0  0  0  0  0  0  0  0
  -29.1380  -20.1340   -9.8150 C   0  0  0  0  0  0  0  0  0  0  0  0
  -26.8640  -19.6120  -10.1060 C   0  0  0  0  0  0  0  0  0  0  0  0
  -26.3470  -18.1740   -8.1970 C   0  0  0  0  0  0  0  0  0  0  0  0
  -24.6510  -18.7420   -9.8540 C   0  0  0  0  0  0  0  0  0  0  0  0
  -30.4600  -21.5050  -11.2460 C   0  0  0  0  0  0  0  0  0  0  0  0
  -28.0100  -20.3360  -10.6490 C   0  0  0  0  0  0  0  0  0  0  0  0
  -29.3460  -21.7100  -12.0780 C   0  0  0  0  0  0  0  0  0  0  0  0
  -27.2470  -18.9400   -8.9190 C   0  0  0  0  0  0  0  0  0  0  0  0
  -25.0380  -18.0800   -8.6770 C   0  0  0  0  0  0  0  0  0  0  0  0
  -28.6770  -19.2570   -8.7170 C   0  0  0  0  0  0  0  0  0  0  0  0
  -25.5650  -19.5150  -10.5780 C   0  0  0  0  0  0  0  0  0  0  0  0
  -29.5470  -18.7540   -7.5500 C   0  0  0  0  0  0  0  0  0  0  0  0
  -30.3630  -20.7110  -10.1010 C   0  0  0  0  0  0  0  0  0  0  0  0
  -30.2682  -17.6131   -7.7884 C   0  0  0  0  0  0  0  0  0  0  0  0
  -31.6351  -22.1828  -11.6616 C   0  0  0  0  0  0  0  0  0  0  0  0
  -31.0673  -17.2422   -6.6095 C   0  0  0  0  0  0  0  0  0  0  0  0
  -30.8352  -17.6300   -5.4844 C   0  0  0  0  0  0  0  0  0  0  0  0
  -31.8425  -17.5181   -4.4068 C   0  0  0  0  0  0  0  0  0  0  0  0
  -32.1307  -16.5826   -6.6226 C   0  0  0  0  0  0  0  0  0  0  0  0
  -31.6243  -18.1297   -3.1096 C   0  0  0  0  0  0  0  0  0  0  0  0
  -32.0763  -22.3605  -12.7922 O   0  0  0  0  0  0  0  0  0  0  0  0
  -30.9718  -17.4917   -2.1840 O   0  0  0  0  0  0  0  0  0  0  0  0
  -32.5117  -15.8566   -8.0492 C   0  0  0  0  0  0  0  0  0  0  0  0
  -32.8162  -21.4357  -10.9214 O   0  0  0  0  0  0  0  0  0  0  0  0
  -33.5668  -20.5980  -11.5867 C   0  0  0  0  0  0  0  0  0  0  0  0
  -33.4618  -20.7939  -13.0257 C   0  0  0  0  0  0  0  0  0  0  0  0
  -32.9237  -21.8861  -13.5897 C   0  0  0  0  0  0  0  0  0  0  0  0
  -32.2302  -19.3626   -2.8077 C   0  0  0  0  0  0  0  0  0  0  0  0
  -34.2623  -19.7305  -13.7568 O   0  0  0  0  0  0  0  0  0  0  0  0
  -30.6238  -16.9835   -9.0668 C   0  0  0  0  0  0  0  0  0  0  0  0
  -34.4509  -19.9595  -10.9429 C   0  0  0  0  0  0  0  0  0  0  0  0
  -32.9494  -16.1998   -5.5422 C   0  0  0  0  0  0  0  0  0  0  0  0
  -34.1499  -15.3026   -5.7909 O   0  0  0  0  0  0  0  0  0  0  0  0
  -33.5648  -15.0267   -8.2113 O   0  0  0  0  0  0  0  0  0  0  0  0
  -35.1403  -18.8763  -11.7415 C   0  0  0  0  0  0  0  0  0  0  0  0
  -31.8523  -23.5331  -10.8365 F   0  0  0  0  0  0  0  0  0  0  0  0
  -32.5460  -20.3614   -3.7839 O   0  0  0  0  0  0  0  0  0  0  0  0
  -32.8908  -16.6383   -4.4000 C   0  0  0  0  0  0  0  0  0  0  0  0
  -34.7775  -18.9068  -12.9099 C   0  0  0  0  0  0  0  0  0  0  0  0
  -34.8241  -17.6261  -13.6934 C   0  0  0  0  0  0  0  0  0  0  0  0
  -32.4440  -19.9710   -1.6610 O   0  0  0  0  0  0  0  0  0  0  0  0
  -35.5778  -17.7094  -11.1235 C   0  0  0  0  0  0  0  0  0  0  0  0
  -34.5461  -17.5749  -15.1254 O   0  0  0  0  0  0  0  0  0  0  0  0
  -35.8264  -16.5490  -11.7627 C   0  0  0  0  0  0  0  0  0  0  0  0
  -32.9639  -22.2377  -14.8427 O   0  0  0  0  0  0  0  0  0  0  0  0
  -35.4172  -16.4044  -13.1458 C   0  0  0  0  0  0  0  0  0  0  0  0
  -31.7369  -16.1849   -9.1807 C   0  0  0  0  0  0  0  0  0  0  0  0
  2  7  1  0
  2 11  1  0
  2 14  2  0
  3  7  1  0
  3  9  1  0
  3 12  2  0
  9 11  1  0
 11 13  2  3
  1  7  2  0
  1  8  1  0
  4  9  2  0
  4 10  1  0
  6 14  1  0
  6  8  2  0
  5 12  1  0
  5 10  2  0
 13 15  1  0
  6 16  1  0
 15 17  1  0
 17 18  1  0
 18 19  2  0
 17 20  2  0
 19 21  1  0
 16 22  1  0
 21 23  2  0
 20 24  1  0
 16 25  1  0
 25 26  1  0
 26 27  2  0
 22 28  1  0
 27 28  1  0
 21 29  1  0
 27 30  1  0
 15 31  2  0
 26 32  1  0
 20 33  1  0
 33 34  1  0
 24 35  1  0
 32 36  1  0
 16 37  1  0
 29 38  1  0
 19 39  1  0
 33 39  2  0
 30 40  1  0
 36 40  1  0
 40 41  2  0
 29 42  2  0
 36 43  2  0
 41 44  1  0
 43 45  1  0
 28 46  2  0
 41 47  1  0
 45 47  2  0
 24 48  2  0
 31 48  1  0
M  END
$$$$
