
     RDKit          3D

 57 68  0  0  0  0  0  0  0  0999 V2000
  -28.1100  -21.1250  -11.7830 C   0  0  0  0  0  0  0  0  0  0  0  0
  -29.1380  -20.1340   -9.8150 C   0  0  0  0  0  0  0  0  0  0  0  0
  -26.8640  -19.6120  -10.1060 C   0  0  0  0  0  0  0  0  0  0  0  0
  -26.3470  -18.1740   -8.1970 C   0  0  0  0  0  0  0  0  0  0  0  0
  -24.6510  -18.7420   -9.8540 C   0  0  0  0  0  0  0  0  0  0  0  0
  -30.4600  -21.5050  -11.2460 C   0  0  0  0  0  0  0  0  0  0  0  0
  -28.0100  -20.3360  -10.6490 C   0  0  0  0  0  0  0  0  0  0  0  0
  -29.3460  -21.7100  -12.0780 C   0  0  0  0  0  0  0  0  0  0  0  0
  -27.2470  -18.9400   -8.9190 C   0  0  0  0  0  0  0  0  0  0  0  0
  -25.0380  -18.0800   -8.6770 C   0  0  0  0  0  0  0  0  0  0  0  0
  -28.6770  -19.2570   -8.7170 C   0  0  0  0  0  0  0  0  0  0  0  0
  -25.5650  -19.5150  -10.5780 C   0  0  0  0  0  0  0  0  0  0  0  0
  -29.5470  -18.7540   -7.5500 C   0  0  0  0  0  0  0  0  0  0  0  0
  -30.3630  -20.7110  -10.1010 C   0  0  0  0  0  0  0  0  0  0  0  0
  -30.2682  -17.6131   -7.7884 C   0  0  0  0  0  0  0  0  0  0  0  0
  -31.8870  -22.2541  -11.5313 C   0  0  0  0  0  0  0  0  0  0  0  0
  -31.0748  -17.2494   -6.6123 C   0  0  0  0  0  0  0  0  0  0  0  0
  -32.7363  -21.5240  -12.0456 N   0  0  0  0  0  0  0  0  0  0  0  0
  -32.2123  -16.5880   -6.7015 C   0  0  0  0  0  0  0  0  0  0  0  0
  -30.4388  -16.8913   -8.9113 C   0  0  0  0  0  0  0  0  0  0  0  0
  -30.8655  -17.8672   -5.3205 C   0  0  0  0  0  0  0  0  0  0  0  0
  -33.2233  -16.3508   -5.7356 C   0  0  0  0  0  0  0  0  0  0  0  0
  -34.3840  -15.6550   -5.9943 O   0  0  0  0  0  0  0  0  0  0  0  0
  -32.9796  -17.0230   -4.5211 C   0  0  0  0  0  0  0  0  0  0  0  0
  -33.9989  -16.9367   -3.4773 O   0  0  0  0  0  0  0  0  0  0  0  0
  -29.6003  -16.8637   -9.9211 C   0  0  0  0  0  0  0  0  0  0  0  0
  -31.8695  -17.8112   -4.3136 C   0  0  0  0  0  0  0  0  0  0  0  0
  -31.6136  -18.3980   -3.0163 O   0  0  0  0  0  0  0  0  0  0  0  0
  -29.8612  -16.0738  -11.0469 C   0  0  0  0  0  0  0  0  0  0  0  0
  -29.0779  -16.1390  -12.1709 C   0  0  0  0  0  0  0  0  0  0  0  0
  -34.5531  -15.0209   -7.0963 C   0  0  0  0  0  0  0  0  0  0  0  0
  -30.8267  -15.0102  -10.7882 C   0  0  0  0  0  0  0  0  0  0  0  0
  -32.9015  -21.0911  -13.2358 C   0  0  0  0  0  0  0  0  0  0  0  0
  -33.6609  -17.1749   -2.2639 C   0  0  0  0  0  0  0  0  0  0  0  0
  -33.8367  -20.9602  -11.2856 C   0  0  0  0  0  0  0  0  0  0  0  0
  -32.8183  -18.5172   -2.1451 C   0  0  0  0  0  0  0  0  0  0  0  0
  -31.0821  -14.0375  -11.8222 C   0  0  0  0  0  0  0  0  0  0  0  0
  -31.7434  -15.1676   -9.7460 C   0  0  0  0  0  0  0  0  0  0  0  0
  -31.5002  -15.9804   -8.7917 N   0  0  0  0  0  0  0  0  0  0  0  0
  -32.3562  -15.7731   -7.7744 C   0  0  0  0  0  0  0  0  0  0  0  0
  -31.9342  -13.0115  -11.6427 O   0  0  0  0  0  0  0  0  0  0  0  0
  -33.0150  -19.8751   -2.5613 C   0  0  0  0  0  0  0  0  0  0  0  0
  -33.5905  -15.1119   -8.1736 C   0  0  0  0  0  0  0  0  0  0  0  0
  -32.6470  -20.5792   -3.3705 O   0  0  0  0  0  0  0  0  0  0  0  0
  -31.9956  -23.5302  -11.4139 O   0  0  0  0  0  0  0  0  0  0  0  0
  -30.2856  -14.0083  -12.9736 C   0  0  0  0  0  0  0  0  0  0  0  0
  -30.4209  -13.0302  -13.9412 O   0  0  0  0  0  0  0  0  0  0  0  0
  -33.3368  -14.4668   -9.4805 C   0  0  0  0  0  0  0  0  0  0  0  0
  -29.1963  -15.0166  -13.2003 C   0  0  0  0  0  0  0  0  0  0  0  0
  -34.2072  -19.6044  -11.6314 C   0  0  0  0  0  0  0  0  0  0  0  0
  -33.6861  -16.4573   -1.2290 C   0  0  0  0  0  0  0  0  0  0  0  0
  -33.6615  -20.0409  -13.4074 C   0  0  0  0  0  0  0  0  0  0  0  0
  -32.5554  -18.5356   -0.7100 C   0  0  0  0  0  0  0  0  0  0  0  0
  -33.0759  -17.4057   -0.0398 C   0  0  0  0  0  0  0  0  0  0  0  0
  -32.5179  -16.6980    0.7818 O   0  0  0  0  0  0  0  0  0  0  0  0
  -35.7451  -14.5115   -7.3895 O   0  0  0  0  0  0  0  0  0  0  0  0
  -28.0924  -16.9742  -12.3495 O   0  0  0  0  0  0  0  0  0  0  0  0
  2  7  1  0
  2 11  1  0
  2 14  2  0
  3  7  1  0
  3  9  1  0
  3 12  2  0
  9 11  1  0
 11 13  2  3
  1  7  2  0
  1  8  1  0
  4  9  2  0
  4 10  1  0
  6 14  1  0
  6  8  2  0
  5 12  1  0
  5 10  2  0
 13 15  1  0
  6 16  1  0
 15 17  1  0
 16 18  1  0
 17 19  2  0
 15 20  2  0
 17 21  1  0
 19 22  1  0
 22 23  1  0
 22 24  2  0
 24 25  1  0
 20 26  1  0
 21 27  2  0
 24 27  1  0
 27 28  1  0
 26 29  2  0
 29 30  1  0
 23 31  1  0
 29 32  1  0
 18 33  1  0
 25 34  1  0
 18 35  1  0
 28 36  1  0
 34 36  1  0
 32 37  1  0
 32 38  2  0
 20 39  1  0
 38 39  1  0
 19 40  1  0
 39 40  1  0
 37 41  2  0
 36 42  1  0
 31 43  1  0
 40 43  2  0
 42 44  2  0
 16 45  2  0
 37 46  1  0
 46 47  1  0
 38 48  1  0
 43 48  1  0
 30 49  1  0
 46 49  2  0
 35 50  1  0
 34 51  2  0
 33 52  1  0
 50 52  1  0
 36 53  1  0
 51 54  1  0
 53 54  1  0
 54 55  1  0
 31 56  2  0
 30 57  2  0
M  END
$$$$
