
     RDKit          3D

 28 31  0  0  0  0  0  0  0  0999 V2000
  -28.1100  -21.1250  -11.7830 C   0  0  0  0  0  0  0  0  0  0  0  0
  -29.1380  -20.1340   -9.8150 C   0  0  0  0  0  0  0  0  0  0  0  0
  -26.8640  -19.6120  -10.1060 C   0  0  0  0  0  0  0  0  0  0  0  0
  -26.3470  -18.1740   -8.1970 C   0  0  0  0  0  0  0  0  0  0  0  0
  -24.6510  -18.7420   -9.8540 C   0  0  0  0  0  0  0  0  0  0  0  0
  -30.4600  -21.5050  -11.2460 C   0  0  0  0  0  0  0  0  0  0  0  0
  -28.0100  -20.3360  -10.6490 C   0  0  0  0  0  0  0  0  0  0  0  0
  -29.3460  -21.7100  -12.0780 C   0  0  0  0  0  0  0  0  0  0  0  0
  -27.2470  -18.9400   -8.9190 C   0  0  0  0  0  0  0  0  0  0  0  0
  -25.0380  -18.0800   -8.6770 C   0  0  0  0  0  0  0  0  0  0  0  0
  -28.6770  -19.2570   -8.7170 C   0  0  0  0  0  0  0  0  0  0  0  0
  -25.5650  -19.5150  -10.5780 C   0  0  0  0  0  0  0  0  0  0  0  0
  -29.5470  -18.7540   -7.5500 C   0  0  0  0  0  0  0  0  0  0  0  0
  -30.3630  -20.7110  -10.1010 C   0  0  0  0  0  0  0  0  0  0  0  0
  -30.2682  -17.6131   -7.7884 C   0  0  0  0  0  0  0  0  0  0  0  0
  -31.0512  -17.2267   -6.5999 C   0  0  0  0  0  0  0  0  0  0  0  0
  -30.7450  -17.6313   -5.4512 C   0  0  0  0  0  0  0  0  0  0  0  0
  -31.8820  -22.2510  -11.5274 C   0  0  0  0  0  0  0  0  0  0  0  0
  -31.4242  -15.7458   -6.5094 C   0  0  0  0  0  0  0  0  0  0  0  0
  -31.8288  -17.6863   -4.3624 C   0  0  0  0  0  0  0  0  0  0  0  0
  -32.3278  -18.9128   -3.8888 C   0  0  0  0  0  0  0  0  0  0  0  0
  -32.7244  -15.4268   -5.8765 C   0  0  0  0  0  0  0  0  0  0  0  0
  -32.8124  -19.8550   -4.6998 O   0  0  0  0  0  0  0  0  0  0  0  0
  -31.7609  -23.4898  -11.8768 O   0  0  0  0  0  0  0  0  0  0  0  0
  -32.8638  -16.7154   -4.6874 C   0  0  0  0  0  0  0  0  0  0  0  0
  -32.9688  -21.6617  -11.2861 O   0  0  0  0  0  0  0  0  0  0  0  0
  -32.1353  -19.3716   -2.7030 O   0  0  0  0  0  0  0  0  0  0  0  0
  -32.9302  -20.5399   -2.3268 C   0  0  0  0  0  0  0  0  0  0  0  0
  2  7  1  0
  2 11  1  0
  2 14  2  0
  3  7  1  0
  3  9  1  0
  3 12  2  0
  9 11  1  0
 11 13  2  3
  1  7  2  0
  1  8  1  0
  4  9  2  0
  4 10  1  0
  6 14  1  0
  6  8  2  0
  5 12  1  0
  5 10  2  0
 13 15  1  0
 15 16  1  0
 16 17  1  0
  6 18  1  0
 16 19  1  0
 17 20  1  0
 20 21  1  0
 19 22  1  0
 21 23  2  0
 18 24  2  0
 20 25  1  0
 22 25  1  0
 18 26  1  0
 21 27  1  0
 27 28  1  0
M  END
$$$$
