
     RDKit          3D

 60 70  0  0  0  0  0  0  0  0999 V2000
  -28.1100  -21.1250  -11.7830 C   0  0  0  0  0  0  0  0  0  0  0  0
  -29.1380  -20.1340   -9.8150 C   0  0  0  0  0  0  0  0  0  0  0  0
  -26.8640  -19.6120  -10.1060 C   0  0  0  0  0  0  0  0  0  0  0  0
  -26.3470  -18.1740   -8.1970 C   0  0  0  0  0  0  0  0  0  0  0  0
  -24.6510  -18.7420   -9.8540 C   0  0  0  0  0  0  0  0  0  0  0  0
  -30.4600  -21.5050  -11.2460 C   0  0  0  0  0  0  0  0  0  0  0  0
  -28.0100  -20.3360  -10.6490 C   0  0  0  0  0  0  0  0  0  0  0  0
  -29.3460  -21.7100  -12.0780 C   0  0  0  0  0  0  0  0  0  0  0  0
  -27.2470  -18.9400   -8.9190 C   0  0  0  0  0  0  0  0  0  0  0  0
  -25.0380  -18.0800   -8.6770 C   0  0  0  0  0  0  0  0  0  0  0  0
  -28.6770  -19.2570   -8.7170 C   0  0  0  0  0  0  0  0  0  0  0  0
  -25.5650  -19.5150  -10.5780 C   0  0  0  0  0  0  0  0  0  0  0  0
  -29.5470  -18.7540   -7.5500 C   0  0  0  0  0  0  0  0  0  0  0  0
  -30.3630  -20.7110  -10.1010 C   0  0  0  0  0  0  0  0  0  0  0  0
  -30.2682  -17.6131   -7.7884 C   0  0  0  0  0  0  0  0  0  0  0  0
  -31.8870  -22.2541  -11.5313 C   0  0  0  0  0  0  0  0  0  0  0  0
  -31.0748  -17.2494   -6.6123 C   0  0  0  0  0  0  0  0  0  0  0  0
  -32.7363  -21.5240  -12.0456 N   0  0  0  0  0  0  0  0  0  0  0  0
  -32.2123  -16.5880   -6.7015 C   0  0  0  0  0  0  0  0  0  0  0  0
  -30.4388  -16.8913   -8.9113 C   0  0  0  0  0  0  0  0  0  0  0  0
  -30.8655  -17.8672   -5.3205 C   0  0  0  0  0  0  0  0  0  0  0  0
  -33.2233  -16.3508   -5.7356 C   0  0  0  0  0  0  0  0  0  0  0  0
  -34.3840  -15.6550   -5.9943 O   0  0  0  0  0  0  0  0  0  0  0  0
  -32.9796  -17.0230   -4.5211 C   0  0  0  0  0  0  0  0  0  0  0  0
  -33.9989  -16.9367   -3.4773 O   0  0  0  0  0  0  0  0  0  0  0  0
  -29.6003  -16.8637   -9.9211 C   0  0  0  0  0  0  0  0  0  0  0  0
  -31.8695  -17.8112   -4.3136 C   0  0  0  0  0  0  0  0  0  0  0  0
  -31.6136  -18.3980   -3.0163 O   0  0  0  0  0  0  0  0  0  0  0  0
  -29.8612  -16.0738  -11.0469 C   0  0  0  0  0  0  0  0  0  0  0  0
  -29.0779  -16.1390  -12.1709 C   0  0  0  0  0  0  0  0  0  0  0  0
  -34.5531  -15.0209   -7.0963 C   0  0  0  0  0  0  0  0  0  0  0  0
  -30.8267  -15.0102  -10.7882 C   0  0  0  0  0  0  0  0  0  0  0  0
  -32.9015  -21.0911  -13.2358 C   0  0  0  0  0  0  0  0  0  0  0  0
  -33.6609  -17.1749   -2.2639 C   0  0  0  0  0  0  0  0  0  0  0  0
  -33.8367  -20.9602  -11.2856 C   0  0  0  0  0  0  0  0  0  0  0  0
  -32.8183  -18.5172   -2.1451 C   0  0  0  0  0  0  0  0  0  0  0  0
  -31.4298  -15.8520   -8.9285 O   0  0  0  0  0  0  0  0  0  0  0  0
  -31.0427  -14.0339  -11.9064 C   0  0  0  0  0  0  0  0  0  0  0  0
  -32.1570  -21.6197  -14.3407 O   0  0  0  0  0  0  0  0  0  0  0  0
  -29.2693  -15.2152  -13.2864 C   0  0  0  0  0  0  0  0  0  0  0  0
  -28.0998  -17.1342  -12.3540 C   0  0  0  0  0  0  0  0  0  0  0  0
  -31.9878  -12.9948  -11.7679 C   0  0  0  0  0  0  0  0  0  0  0  0
  -28.5289  -15.2981  -14.4298 C   0  0  0  0  0  0  0  0  0  0  0  0
  -31.6077  -15.0347   -9.8235 C   0  0  0  0  0  0  0  0  0  0  0  0
  -34.1932  -16.5586   -1.1636 C   0  0  0  0  0  0  0  0  0  0  0  0
  -30.3306  -14.1645  -13.1632 O   0  0  0  0  0  0  0  0  0  0  0  0
  -27.5583  -16.2466  -14.5709 C   0  0  0  0  0  0  0  0  0  0  0  0
  -34.9788  -15.6336   -1.5166 O   0  0  0  0  0  0  0  0  0  0  0  0
  -32.3305  -18.7143   -0.8877 C   0  0  0  0  0  0  0  0  0  0  0  0
  -33.8561  -16.8413    0.0591 O   0  0  0  0  0  0  0  0  0  0  0  0
  -32.1008  -12.1019  -12.7819 O   0  0  0  0  0  0  0  0  0  0  0  0
  -33.8479  -20.0939  -13.6350 C   0  0  0  0  0  0  0  0  0  0  0  0
  -32.7761  -13.1668  -10.6022 C   0  0  0  0  0  0  0  0  0  0  0  0
  -26.7843  -16.3493  -15.7350 O   0  0  0  0  0  0  0  0  0  0  0  0
  -32.6340  -17.5533    0.2639 C   0  0  0  0  0  0  0  0  0  0  0  0
  -33.7816  -12.0621  -10.5330 O   0  0  0  0  0  0  0  0  0  0  0  0
  -32.0360  -17.3908    1.2937 O   0  0  0  0  0  0  0  0  0  0  0  0
  -27.2983  -17.2001  -13.5247 C   0  0  0  0  0  0  0  0  0  0  0  0
  -32.6215  -14.0091   -9.6159 C   0  0  0  0  0  0  0  0  0  0  0  0
  -34.4908  -19.8322  -12.4677 C   0  0  0  0  0  0  0  0  0  0  0  0
  2  7  1  0
  2 11  1  0
  2 14  2  0
  3  7  1  0
  3  9  1  0
  3 12  2  0
  9 11  1  0
 11 13  2  3
  1  7  2  0
  1  8  1  0
  4  9  2  0
  4 10  1  0
  6 14  1  0
  6  8  2  0
  5 12  1  0
  5 10  2  0
 13 15  1  0
  6 16  1  0
 15 17  1  0
 16 18  1  0
 17 19  2  0
 15 20  2  3
 17 21  1  0
 19 22  1  0
 22 23  1  0
 22 24  2  0
 24 25  1  0
 20 26  1  0
 21 27  2  0
 24 27  1  0
 27 28  1  0
 26 29  2  0
 29 30  1  0
 23 31  1  0
 29 32  1  0
 18 33  1  0
 25 34  1  0
 18 35  1  0
 28 36  1  0
 34 36  1  0
 20 37  1  0
 32 38  2  0
 33 39  2  0
 30 40  1  0
 30 41  2  0
 38 42  1  0
 40 43  2  0
 32 44  1  0
 37 44  1  0
 34 45  1  0
 38 46  1  0
 40 46  1  0
 43 47  1  0
 45 48  2  0
 36 49  1  0
 45 50  1  0
 42 51  1  0
 33 52  1  0
 42 53  2  0
 47 54  1  0
 49 55  1  0
 50 55  1  0
 53 56  1  0
 55 57  2  0
 41 58  1  0
 47 58  2  0
 44 59  2  0
 53 59  1  0
 35 60  1  0
 52 60  2  0
M  END
$$$$
